units           metal
boundary        p p p
atom_style      atomic
read_data    ../../data/data.T520
Reading data file ...
  triclinic box = (6.1177105 6.1177105 6.1177105) to (55.813227 55.813227 55.813227) with tilt (-5.7016395e-15 0.0000000 0.0000000)
  reading atoms ...
  9088 atoms
  reading velocities ...
  9088 velocities
mass            1   58.693  #Ni
mass            2   92.906  #Nb
pair_style      eam/fs
pair_coeff      * * v1_18_NiNb_B2.eam.fs  Ni Nb
change_box all triclinic
Changing box ...
  triclinic box = (6.1177105 6.1177105 6.1177105) to (55.813227 55.813227 55.813227) with tilt (-5.7016395e-15 0.0000000 0.0000000)
timestep 0.01
thermo 10000
reset_timestep 0
thermo_style custom step temp pe etotal press vol lx ly lz
fix             1 all nvt/sllod temp 520 520  0.1
thermo_modify flush yes
fix nodrift all momentum 1  linear 1 1 1
fix com_seed all recenter INIT INIT INIT shift all
fix dsf all deform 1 xy  wiggle 1.0  10000   units box  remap v
fix ps1 all ave/time 1 100  10000 c_thermo_press[1] c_thermo_press[2]  c_thermo_press[3] c_thermo_press[4]  c_thermo_press[5] c_thermo_press[6]  file  stress.520
dump            1 all custom 1000000 dump.520 id type x y z
dump_modify 1 sort id
run 5000000
  update every 1 steps, delay 10 steps, check yes
Step Temp PotEng TotEng Press Volume Lx Ly Lz
0     515.0048   -56372.498    -55767.58   -652.07202    122730.25    49.695517    49.695517    49.695517
Averages over the last 251 of 501 rows, steps 2500000 to 5000000:
Temp PotEng TotEng Press Volume Lx Ly Lz
520.379 -56343.2 -55732 399.889 122730 49.6955 49.6955 49.6955
Loop time of 2568.94 on 48 procs for 5000000 steps with 9088 atoms

clear
package intel 1
#jump dms500.lmp
