units           metal
boundary        p p p
atom_style      atomic
read_data       ../data/T460.dat
  orthogonal box = (-35.5095 -35.5095 -35.5095) to (35.5095 35.5095 35.5095)
  reading atoms ...
  32000 atoms
  reading velocities ...
  32000 velocities
mass            1  58.69
mass		2  30.97
pair_style      eam/alloy
pair_coeff      * *  NiP.lammps.eam Ni P

neigh_modify    delay 5

timestep 0.01
thermo 1000
reset_timestep 0
thermo_style custom step temp pe etotal press vol lx ly lz
fix             1 all nvt temp 460 460 0.5
thermo_modify flush yes

fix dsf all deform 1 x  wiggle 0.5  30000.0 y volume z volume units box
fix ps1 all ave/time 1 1 30000 c_thermo_press[1] c_thermo_press[2]  c_thermo_press[3] c_thermo_press[4]  c_thermo_press[5] c_thermo_press[6]  file  stress.460
dump            1 all custom 3000000 dump.460 id type x y z
dump_modify 1 sort id
run 30000000
  update every 1 steps, delay 5 steps, check yes
Step Temp PotEng TotEng Press Volume Lx Ly Lz
0    462.06742   -144602.84   -142691.63   -409.58724    358199.79    71.019091    71.019091    71.019091
Averages over the last 15001 of 30001 rows, steps 15000000 to 30000000:
Temp PotEng TotEng Press Volume Lx Ly Lz
460.008 -144511 -142608 1299.1 358200 71.0191 71.0198 71.0198
Loop time of 42227.4 on 48 procs for 30000000 steps with 32000 atoms

write_restart rst.460
clear
package intel 1
jump dms440.lmp
#MD-DMS by Ha-Bin Yu
variable T equal 440
log log.440
