units           metal
boundary        p p p
atom_style      atomic
read_data       ../data/T300.dat
  orthogonal box = (-35.4067 -35.4067 -35.4067) to (35.4067 35.4067 35.4067)
  reading atoms ...
  32000 atoms
  reading velocities ...
  32000 velocities
mass            1  58.69
mass		2  30.97
pair_style      eam/alloy
pair_coeff      * *  NiP.lammps.eam Ni P

neigh_modify    delay 5

timestep 0.01
thermo 1000
reset_timestep 0
thermo_style custom step temp pe etotal press vol lx ly lz
fix             1 all nvt temp 300 300 0.5
thermo_modify flush yes

fix dsf all deform 1 x  wiggle 0.5  30000.0 y volume z volume units box
fix ps1 all ave/time 1 1 30000 c_thermo_press[1] c_thermo_press[2]  c_thermo_press[3] c_thermo_press[4]  c_thermo_press[5] c_thermo_press[6]  file  stress.300
dump            1 all custom 3000000 dump.300 id type x y z
dump_modify 1 sort id
run 30000000
  update every 1 steps, delay 5 steps, check yes
Step Temp PotEng TotEng Press Volume Lx Ly Lz
0     299.3185   -145354.58   -144116.54    714.67779    355097.06     70.81344     70.81344     70.81344
Averages over the last 15001 of 30001 rows, steps 15000000 to 30000000:
Temp PotEng TotEng Press Volume Lx Ly Lz
300 -145306 -144065 1553.88 355097 70.8134 70.8141 70.8141
Loop time of 41634.3 on 48 procs for 30000000 steps with 32000 atoms

write_restart rst.300
