units           metal
boundary        p p p
atom_style      atomic
read_data       ../data/T400.dat
  orthogonal box = (-35.4726 -35.4726 -35.4726) to (35.4726 35.4726 35.4726)
  reading atoms ...
  32000 atoms
  reading velocities ...
  32000 velocities
mass            1  58.69
mass		2  30.97
pair_style      eam/alloy
pair_coeff      * *  NiP.lammps.eam Ni P

neigh_modify    delay 5

timestep 0.01
thermo 1000
reset_timestep 0
thermo_style custom step temp pe etotal press vol lx ly lz
fix             1 all nvt temp 400 400 0.5
thermo_modify flush yes

fix dsf all deform 1 x  wiggle 0.5  30000.0 y volume z volume units box
fix ps1 all ave/time 1 1 30000 c_thermo_press[1] c_thermo_press[2]  c_thermo_press[3] c_thermo_press[4]  c_thermo_press[5] c_thermo_press[6]  file  stress.400
dump            1 all custom 3000000 dump.400 id type x y z
dump_modify 1 sort id
run 30000000
  update every 1 steps, delay 5 steps, check yes
Step Temp PotEng TotEng Press Volume Lx Ly Lz
0    399.26333   -144885.85   -143234.42   -242.53919    357083.07    70.945211    70.945211    70.945211
Averages over the last 15001 of 30001 rows, steps 15000000 to 30000000:
Temp PotEng TotEng Press Volume Lx Ly Lz
400.011 -144815 -143161 984.063 357083 70.9452 70.9459 70.9459
Loop time of 42021 on 48 procs for 30000000 steps with 32000 atoms

write_restart rst.400
clear
package intel 1
jump dms380.lmp
#MD-DMS by Ha-Bin Yu
variable T equal 380
log log.380
