units           metal
boundary        p p p
atom_style      atomic
read_data      ../../restart/T670.dat
Reading data file ...
  orthogonal box = (-2.5010475 -2.5010475 -2.5010475) to (80.335825 80.335825 80.335825)
  reading atoms ...
  32000 atoms
  reading velocities ...
  32000 velocities
pair_style      eam/alloy
pair_coeff      * *  ../../ZrCu.lammps.eam Zr Cu
mass 1 91.224
mass 2 63.546
neighbor            2.0 bin
neigh_modify     delay 1
timestep 0.01
thermo 100000
reset_timestep 0
thermo_style custom step temp pe etotal press vol lx ly lz
fix             1 all nvt temp 670 670 0.1
thermo_modify flush yes
fix nodrift all momentum 1  linear 1 1 1
fix com_seed all recenter INIT INIT INIT shift all
fix dsf all deform 1 x  wiggle 1.0  100000.0 y volume z volume units box
fix ps1 all ave/time 1 1 100000 c_thermo_press[1] c_thermo_press[2]  c_thermo_press[3] c_thermo_press[4]  c_thermo_press[5] c_thermo_press[6]  file  stress.670
dump            1 all custom 10000000 dump.670 id type x y z
dump_modify 1 sort id
run 100000000
  update every 1 steps, delay 1 steps, check yes
Step Temp PotEng TotEng Press Volume Lx Ly Lz
0     671.3146   -156830.61   -154053.93    844.96828    568422.27    82.836873    82.836873    82.836873
Averages over the last 501 of 1001 rows, steps 50000000 to 100000000:
Temp PotEng TotEng Press Volume Lx Ly Lz
669.887 -156786 -154015 1067.43 568422 82.8369 82.8391 82.8391
Loop time of 59470.4 on 104 procs for 100000000 steps with 32000 atoms

clear
package intel 1
jump dms680.lmp
#MD-DMS by Ha-Bin Yu
#package gpu 4
variable T equal 680
log log.680
