units           metal
boundary        p p p
atom_style      atomic
read_data      ../../restart/T660.dat
Reading data file ...
  orthogonal box = (-2.5091731 -2.5091731 -2.5091731) to (80.343951 80.343951 80.343951)
  reading atoms ...
  32000 atoms
  reading velocities ...
  32000 velocities
pair_style      eam/alloy
pair_coeff      * *  ../../ZrCu.lammps.eam Zr Cu
mass 1 91.224
mass 2 63.546
neighbor            2.0 bin
neigh_modify     delay 1
timestep 0.01
thermo 100000
reset_timestep 0
thermo_style custom step temp pe etotal press vol lx ly lz
fix             1 all nvt temp 660 660 0.1
thermo_modify flush yes
fix nodrift all momentum 1  linear 1 1 1
fix com_seed all recenter INIT INIT INIT shift all
fix dsf all deform 1 x  wiggle 1.0  100000.0 y volume z volume units box
fix ps1 all ave/time 1 1 100000 c_thermo_press[1] c_thermo_press[2]  c_thermo_press[3] c_thermo_press[4]  c_thermo_press[5] c_thermo_press[6]  file  stress.660
dump            1 all custom 10000000 dump.660 id type x y z
dump_modify 1 sort id
run 100000000
  update every 1 steps, delay 1 steps, check yes
Step Temp PotEng TotEng Press Volume Lx Ly Lz
0    658.54782   -156919.03   -154195.15   -534.18597    568756.87    82.853124    82.853124    82.853124
Averages over the last 501 of 1001 rows, steps 50000000 to 100000000:
Temp PotEng TotEng Press Volume Lx Ly Lz
659.981 -156859 -154129 -52.0984 568757 82.8531 82.8554 82.8554
Loop time of 60048.6 on 104 procs for 100000000 steps with 32000 atoms

clear
package intel 1
jump dms670.lmp
#MD-DMS by Ha-Bin Yu
#package gpu 4
variable T equal 670
log log.670
