units           metal
boundary        p p p
atom_style      atomic
read_data      ../data/T700.dat
Reading data file ...
  orthogonal box = (-6.3786826 -6.3786826 -6.3786826) to (78.778683 78.778683 78.778683)
  reading atoms ...
  32000 atoms
  reading velocities ...
  32000 velocities
mass            1  26.98	#Al
mass            2  150.36	#Sm
pair_style      eam/fs
pair_coeff      * * ../data/Al90Sm10_MendelevM_2014.eam.fs  Al Sm

neighbor        2.0 bin
neigh_modify    delay 1

timestep 0.01
thermo 1000
reset_timestep 0
thermo_style custom step temp pe etotal press vol lx ly lz
fix             1 all nvt temp 700 700 0.1
thermo_modify flush yes
fix nodrift all momentum 1  linear 1 1 1
fix com_seed all recenter INIT INIT INIT shift all
fix dsf all deform 1 x  wiggle 0.5 300.0 y volume z volume units box
fix ps1 all ave/time 1 1 300 c_thermo_press[1] c_thermo_press[2]  c_thermo_press[3] c_thermo_press[4]  c_thermo_press[5] c_thermo_press[6]  file  stress.700
dump            1 all custom 30000 dump.700 id type x y z
dump_modify 1 sort id
run 300000
Using INTEL Package without Coprocessor.
Compiler: GNU C++ 4.8.5 20150623 (Red Hat 4.8.5-39)
SIMD compiler directives: Disabled
Precision: mixed
  update every 1 steps, delay 1 steps, check yes
Step          Temp          PotEng         TotEng         Press          Volume           Lx             Ly             Lz
0   702.12638     -127534.54     -124630.41      90.72236       617542.21      85.157365      85.157365      85.157365
Averages over the last 151 of 301 rows, steps 150000 to 300000:
Temp PotEng TotEng Press Volume Lx Ly Lz
700.114 -127389 -124494 1291.35 617542 85.1574 85.1579 85.1579
Loop time of 1203.94 on 48 procs for 300000 steps with 32000 atoms

clear
Open of file /opt/app/anaconda3/envs/deepmd/lib/deepmd_lmp/dpplugin.so failed: libdeepmd_cc.so: cannot open shared object file: No such file or directory
Loaded 0 plugins from /opt/app/anaconda3/envs/deepmd/lib/deepmd_lmp
Loaded 0 plugins from
package intel 1
jump dms680.lmp
#MD-DMS by Ha-Bin Yu
variable T equal 680
log log.680
