units           metal
boundary        p p p
atom_style      atomic
read_data      ../data/T480.dat
Reading data file ...
  orthogonal box = (-6.1409969 -6.1409969 -6.1409969) to (78.540997 78.540997 78.540997)
  reading atoms ...
  32000 atoms
mass            1  26.98	#Al
mass            2  150.36	#Sm
pair_style      eam/fs
pair_coeff      * * ../data/Al90Sm10_MendelevM_2014.eam.fs  Al Sm

neighbor        2.0 bin
neigh_modify    delay 1

timestep 0.01
thermo 1000
reset_timestep 0
thermo_style custom step temp pe etotal press vol lx ly lz
fix             1 all nvt temp 480 480 0.1
thermo_modify flush yes
fix nodrift all momentum 1  linear 1 1 1
fix com_seed all recenter INIT INIT INIT shift all
fix dsf all deform 1 x  wiggle 0.5 300.0 y volume z volume units box
fix ps1 all ave/time 1 1 300 c_thermo_press[1] c_thermo_press[2]  c_thermo_press[3] c_thermo_press[4]  c_thermo_press[5] c_thermo_press[6]  file  stress.480
dump            1 all custom 30000 dump.480 id type x y z
dump_modify 1 sort id
run 300000
Using INTEL Package without Coprocessor.
Compiler: GNU C++ 4.8.5 20150623 (Red Hat 4.8.5-39)
SIMD compiler directives: Disabled
Precision: mixed
  update every 1 steps, delay 1 steps, check yes
Step          Temp          PotEng         TotEng         Press          Volume           Lx             Ly             Lz
0   0             -128935.82     -128935.82     -3136.8801      607257.97      84.681994      84.681994      84.681994
Averages over the last 151 of 301 rows, steps 150000 to 300000:
Temp PotEng TotEng Press Volume Lx Ly Lz
479.954 -128841 -126856 1120.19 607258 84.682 84.6825 84.6825
Loop time of 1170.72 on 48 procs for 300000 steps with 32000 atoms

clear
Open of file /opt/app/anaconda3/envs/deepmd/lib/deepmd_lmp/dpplugin.so failed: libdeepmd_cc.so: cannot open shared object file: No such file or directory
Loaded 0 plugins from /opt/app/anaconda3/envs/deepmd/lib/deepmd_lmp
Loaded 0 plugins from
package intel 1
jump dms460.lmp
#MD-DMS by Ha-Bin Yu
variable T equal 460
log log.460
