units              metal
boundary           p p p
atom_style         atomic
read_data       ../../../data/T520.dat
Reading data file ...
  orthogonal box = (0 0 -0.365) to (219 219 0.365)
  reading atoms ...
  7200 atoms
change_box all triclinic
Changing box ...
  triclinic box = (0 0 -0.365) to (219 219 0.365) with tilt (0 0 0)
pair_style      eam/fs
pair_coeff      * * ../../../../CuZr_mm.eam.fs Cu Zr
Reading eam/fs potential file ../../../../CuZr_mm.eam.fs with DATE: 2007-06-11
mass                1 63.546
mass                2 91.224

velocity all create 520 8904
neighbor        2.0 bin
neigh_modify    delay 1

timestep 0.01
thermo 10000
reset_timestep 0
thermo_style custom step temp pe etotal press vol lx ly lz
fix             1 all nvt temp 520 520  0.1
thermo_modify flush yes
fix nodrift all momentum 1  linear 1 1 1
fix com_seed all recenter INIT INIT INIT shift all
fix dsf all deform 1 xy  wiggle 2.0  10000   units box
fix ps1 all ave/time 1 100  10000 c_thermo_press[1] c_thermo_press[2]  c_thermo_press[3] c_thermo_press[4]  c_thermo_press[5] c_thermo_press[6]  file  stress.520
dump            1 all custom 1000000 dump.520 id type x y z
dump_modify 1 sort id
fix 5 all enforce2d
run 5000000
Using INTEL Package without Coprocessor.
Compiler: Intel Classic C++ 18.00.3 / Intel(R) C++ g++ 4.8.5 mode
SIMD compiler directives: Enabled
Precision: mixed
Step          Temp          PotEng         TotEng         Press          Volume           Lx             Ly             Lz
0   520           -26353.335     -26030.747     -46165.384      47961          219            219            0.73
Averages over the last 251 of 501 rows, steps 2500000 to 5000000:
Temp PotEng TotEng Press Volume Lx Ly Lz
520.274 -26347.1 -26024.3 -46090.2 47961 219 219 0.73
Loop time of 923.12 on 24 procs for 5000000 steps with 7200 atoms
