units           metal
boundary        p p p
atom_style      atomic
read_data    ../../data/data.T900
  triclinic box = (6.04424 6.04424 6.04424) to (55.8867 55.8867 55.8867) with tilt (-5.7185e-15 0 0)
  reading atoms ...
  9088 atoms
  reading velocities ...
  9088 velocities
mass            1   58.693  #Ni
mass            2   92.906  #Nb
pair_style      eam/fs
pair_coeff      * * v1_18_NiNb_B2.eam.fs  Ni Nb
change_box all triclinic
  triclinic box = (6.04424 6.04424 6.04424) to (55.8867 55.8867 55.8867) with tilt (-5.7185e-15 0 0)
timestep 0.01
thermo 1000000
reset_timestep 0
thermo_style custom step temp pe etotal press vol lx ly lz
fix             1 all nvt/sllod temp 900 900  0.1
thermo_modify flush yes
fix nodrift all momentum 1  linear 1 1 1
fix com_seed all recenter INIT INIT INIT shift all
fix dsf all deform 1 xy  wiggle 1.0  1000000   units box  remap v
fix ps1 all ave/time 1 10000  1000000 c_thermo_press[1] c_thermo_press[2]  c_thermo_press[3] c_thermo_press[4]  c_thermo_press[5] c_thermo_press[6]  file  stress.900
dump            1 all custom 100000000 dump.900 id type x y z
dump_modify 1 sort id
run 500000000
  update every 1 steps, delay 10 steps, check yes
Step Temp PotEng TotEng Press Volume Lx Ly Lz
0      903.153   -55832.842   -54772.011   -397.82969    123822.22    49.842467    49.842467    49.842467
Averages over the last 251 of 501 rows, steps 250000000 to 500000000:
Temp PotEng TotEng Press Volume Lx Ly Lz
899.279 -55777.5 -54721.2 1415.37 123822 49.8425 49.8425 49.8425
Loop time of 646797 on 36 procs for 500000000 steps with 9088 atoms

write_restart T900.rst
clear
package intel 1
#jump dms890.lmp
