units           metal
boundary        p p p
atom_style      atomic
read_data    ../../data/data.T880
  triclinic box = (6.04882 6.04882 6.04882) to (55.8821 55.8821 55.8821) with tilt (-5.71745e-15 0 0)
  reading atoms ...
  9088 atoms
  reading velocities ...
  9088 velocities
mass            1   58.693  #Ni
mass            2   92.906  #Nb
pair_style      eam/fs
pair_coeff      * * v1_18_NiNb_B2.eam.fs  Ni Nb
change_box all triclinic
  triclinic box = (6.04882 6.04882 6.04882) to (55.8821 55.8821 55.8821) with tilt (-5.71745e-15 0 0)
timestep 0.01
thermo 1000000
reset_timestep 0
thermo_style custom step temp pe etotal press vol lx ly lz
fix             1 all nvt/sllod temp 880 880  0.1
thermo_modify flush yes
fix nodrift all momentum 1  linear 1 1 1
fix com_seed all recenter INIT INIT INIT shift all
fix dsf all deform 1 xy  wiggle 1.0  1000000   units box  remap v
fix ps1 all ave/time 1 10000  1000000 c_thermo_press[1] c_thermo_press[2]  c_thermo_press[3] c_thermo_press[4]  c_thermo_press[5] c_thermo_press[6]  file  stress.880
dump            1 all custom 100000000 dump.880 id type x y z
dump_modify 1 sort id
run 500000000
  update every 1 steps, delay 10 steps, check yes
Step Temp PotEng TotEng Press Volume Lx Ly Lz
0     883.2432   -55854.688   -54817.242    535.99064    123753.82    49.833288    49.833288    49.833288
Averages over the last 251 of 501 rows, steps 250000000 to 500000000:
Temp PotEng TotEng Press Volume Lx Ly Lz
879.668 -55819 -54785.8 1211.79 123754 49.8333 49.8333 49.8333
Loop time of 673318 on 36 procs for 500000000 steps with 9088 atoms

write_restart T880.rst
clear
package intel 1
#jump dms860.lmp
