units           metal
boundary        p p p
atom_style      atomic
read_data    ../../data/data.T700
Reading data file ...
  triclinic box = (6.0834274 6.0834274 6.0834274) to (55.84751 55.84751 55.84751) with tilt (-5.7095062e-15 0 0)
  reading atoms ...
  9088 atoms
  reading velocities ...
  9088 velocities
mass            1   58.693  #Ni
mass            2   92.906  #Nb
pair_style      eam/fs
pair_coeff      * * v1_18_NiNb_B2.eam.fs  Ni Nb
change_box all triclinic
Changing box ...
  triclinic box = (6.0834274 6.0834274 6.0834274) to (55.84751 55.84751 55.84751) with tilt (-5.7095062e-15 0 0)
timestep 0.01
thermo 1000000
reset_timestep 0
thermo_style custom step temp pe etotal press vol lx ly lz
fix             1 all nvt/sllod temp 700 700  0.1
thermo_modify flush yes
fix nodrift all momentum 1  linear 1 1 1
fix com_seed all recenter INIT INIT INIT shift all
fix dsf all deform 1 xy  wiggle 1.0  1000000   units box  remap v
fix ps1 all ave/time 1 10000  1000000 c_thermo_press[1] c_thermo_press[2]  c_thermo_press[3] c_thermo_press[4]  c_thermo_press[5] c_thermo_press[6]  file  stress.700
dump            1 all custom 100000000 dump.700 id type x y z
dump_modify 1 sort id
run 500000000
Using INTEL Package without Coprocessor.
Compiler: GNU C++ 4.8.5 20150623 (Red Hat 4.8.5-28)
SIMD compiler directives: Disabled
Precision: mixed
  update every 1 steps, delay 10 steps, check yes
Step          Temp          PotEng         TotEng         Press          Volume           Lx             Ly             Lz
0   709.85823     -56136.646     -55302.856     -426.88427      123238.96      49.764083      49.764083      49.764083
Averages over the last 251 of 501 rows, steps 250000000 to 500000000:
Temp PotEng TotEng Press Volume Lx Ly Lz
699.816 -56109.6 -55287.6 312.645 123239 49.7641 49.7641 49.7641
Loop time of 831228 on 36 procs for 500000000 steps with 9088 atoms

write_restart T700.rst
System init for write_restart ...
Using INTEL Package without Coprocessor.
Compiler: GNU C++ 4.8.5 20150623 (Red Hat 4.8.5-28)
SIMD compiler directives: Disabled
Precision: mixed
clear
package intel 1
#jump dms720.lmp
