units              metal
boundary           p p p
atom_style         atomic
read_data       ../../../data/T1000.dat
Reading data file ...
  orthogonal box = (0 0 -0.365) to (219 219 0.365)
  reading atoms ...
  7200 atoms
  reading velocities ...
  7200 velocities
change_box all triclinic
Changing box ...
  triclinic box = (0 0 -0.365) to (219 219 0.365) with tilt (0 0 0)
mass            1  26.98    #Al
mass            2  150.36   #Sm
pair_style      eam/fs
pair_coeff      * *  ../../../Al90Sm10_MendelevM_2014.eam.fs  Al Sm
velocity all create 1000 79415
neighbor        2.0 bin
neigh_modify    delay 1

timestep 0.01
thermo 100000
reset_timestep 0
thermo_style custom step temp pe etotal press vol lx ly lz
fix             1 all nvt temp 1000 1000  0.1
thermo_modify flush yes
fix nodrift all momentum 1  linear 1 1 1
fix com_seed all recenter INIT INIT INIT shift all
fix dsf all deform 1 xy  wiggle 2.0  100000   units box
fix ps1 all ave/time 1 1000  100000 c_thermo_press[1] c_thermo_press[2]  c_thermo_press[3] c_thermo_press[4]  c_thermo_press[5] c_thermo_press[6]  file  stress.1000
dump            1 all custom 10000000 dump.1000 id type x y z
dump_modify 1 sort id
fix 5 all enforce2d
run 50000000
Using INTEL Package without Coprocessor.
Compiler: Intel Classic C++ 19.10.0 / Intel(R) C++ g++ 4.8.5 mode
SIMD compiler directives: Enabled
Precision: mixed
Step          Temp          PotEng         TotEng         Press          Volume           Lx             Ly             Lz
0   1000          -20721.681     -20101.319      389247.85      47961          219            219            0.73
Averages over the last 251 of 501 rows, steps 25000000 to 50000000:
Temp PotEng TotEng Press Volume Lx Ly Lz
1000.91 -20667.4 -20046.4 394533 47961 219 219 0.73
Loop time of 8171.46 on 36 procs for 50000000 steps with 7200 atoms
