units           metal
boundary        p p p
atom_style      atomic
read_data      ../../data/T670.dat
Reading data file ...
  orthogonal box = (-0.34331743 -0.34331743 -0.34331743) to (56.227810 56.227810 56.227810)
  reading atoms ...
  9088 atoms
  reading velocities ...
  9088 velocities
mass            1  26.98	#Al
mass            2  150.36	#Sm
pair_style      eam/fs
pair_coeff      * *  ../../Al90Sm10_MendelevM_2014.eam.fs  Al Sm

neighbor        2.0 bin
neigh_modify    delay 1

timestep 0.01
thermo 1000
reset_timestep 0
thermo_style custom step temp pe etotal press vol lx ly lz
fix             1 all nvt temp 670 670 0.1
thermo_modify flush yes
fix nodrift all momentum 1  linear 1 1 1
fix com_seed all recenter INIT INIT INIT shift all
fix dsf all deform 1 x  wiggle 1.0  10000.0 y volume z volume units box
fix ps1 all ave/time 1 1 10000 c_thermo_press[1] c_thermo_press[2]  c_thermo_press[3] c_thermo_press[4]  c_thermo_press[5] c_thermo_press[6]  file  stress.670
dump            1 all custom 1000000 dump.670 id type x y z
dump_modify 1 sort id
run 10000000
  update every 1 steps, delay 1 steps, check yes
Step Temp PotEng TotEng Press Volume Lx Ly Lz
0    674.07399   -37440.295   -36648.537    817.42395    181044.15    56.571127    56.571127    56.571127
Averages over the last 5001 of 10001 rows, steps 5000000 to 10000000:
Temp PotEng TotEng Press Volume Lx Ly Lz
669.962 -37408.2 -36621.3 1352.45 181044 56.5711 56.5744 56.5744
Loop time of 4838.18 on 48 procs for 10000000 steps with 9088 atoms

write_restart rst.670
System init for write_restart ...
clear
package intel 1
jump dms650.lmp
#MD-DMS by Ha-Bin Yu
variable T equal 650
log log.650
