units           metal
boundary        p p p
atom_style      atomic
read_data      ../../data/T540.dat
Reading data file ...
  orthogonal box = (-0.2739361 -0.2739361 -0.2739361) to (56.158429 56.158429 56.158429)
  reading atoms ...
  9088 atoms
  reading velocities ...
  9088 velocities
mass            1  26.98	#Al
mass            2  150.36	#Sm
pair_style      eam/fs
pair_coeff      * *  ../../Al90Sm10_MendelevM_2014.eam.fs  Al Sm

neighbor        2.0 bin
neigh_modify    delay 1

timestep 0.01
thermo 1000
reset_timestep 0
thermo_style custom step temp pe etotal press vol lx ly lz
fix             1 all nvt temp 540 540 0.1
thermo_modify flush yes
fix nodrift all momentum 1  linear 1 1 1
fix com_seed all recenter INIT INIT INIT shift all
fix dsf all deform 1 x  wiggle 1.0  10000.0 y volume z volume units box
fix ps1 all ave/time 1 1 10000 c_thermo_press[1] c_thermo_press[2]  c_thermo_press[3] c_thermo_press[4]  c_thermo_press[5] c_thermo_press[6]  file  stress.540
dump            1 all custom 1000000 dump.540 id type x y z
dump_modify 1 sort id
run 10000000
  update every 1 steps, delay 1 steps, check yes
Step Temp PotEng TotEng Press Volume Lx Ly Lz
0    548.11654   -37625.684   -36981.873    1191.3952    179715.17    56.432365    56.432365    56.432365
Averages over the last 5001 of 10001 rows, steps 5000000 to 10000000:
Temp PotEng TotEng Press Volume Lx Ly Lz
540.026 -37596.6 -36962.3 1885.41 179715 56.4324 56.4357 56.4357
Loop time of 4774.44 on 48 procs for 10000000 steps with 9088 atoms

write_restart rst.540
System init for write_restart ...
clear
package intel 1
jump dms560.lmp
#MD-DMS by Ha-Bin Yu
variable T equal 560
log log.560
