units           metal
boundary        p p p
atom_style      atomic
read_data      ../../data/T690.dat
Reading data file ...
  orthogonal box = (-0.35200003 -0.35200003 -0.35200003) to (56.236493 56.236493 56.236493)
  reading atoms ...
  9088 atoms
  reading velocities ...
  9088 velocities
mass            1  26.98	#Al
mass            2  150.36	#Sm
pair_style      eam/fs
pair_coeff      * *  ../../Al90Sm10_MendelevM_2014.eam.fs  Al Sm

neighbor        2.0 bin
neigh_modify    delay 1

timestep 0.01
thermo 1000
reset_timestep 0
thermo_style custom step temp pe etotal press vol lx ly lz
fix             1 all nvt temp 690 690 0.1
thermo_modify flush yes
fix nodrift all momentum 1  linear 1 1 1
fix com_seed all recenter INIT INIT INIT shift all
fix dsf all deform 1 x  wiggle 1.0  10000.0 y volume z volume units box
fix ps1 all ave/time 1 1 10000 c_thermo_press[1] c_thermo_press[2]  c_thermo_press[3] c_thermo_press[4]  c_thermo_press[5] c_thermo_press[6]  file  stress.690
dump            1 all custom 1000000 dump.690 id type x y z
dump_modify 1 sort id
run 10000000
  update every 1 steps, delay 1 steps, check yes
Step Temp PotEng TotEng Press Volume Lx Ly Lz
0    684.11429   -37414.851   -36611.299    462.26107    181210.93    56.588493    56.588493    56.588493
Averages over the last 5001 of 10001 rows, steps 5000000 to 10000000:
Temp PotEng TotEng Press Volume Lx Ly Lz
690.059 -37376.2 -36565.7 1559.69 181211 56.5885 56.5918 56.5918
Loop time of 4906 on 48 procs for 10000000 steps with 9088 atoms

write_restart rst.690
System init for write_restart ...
clear
package intel 1
jump dms670.lmp
#MD-DMS by Ha-Bin Yu
variable T equal 670
log log.670
