units           metal
boundary        p p p
atom_style      atomic
read_data      /HOME/hust_hbyu_1/Samples/Ni80P20_C20/dat/T475.dat
  orthogonal box = (-35.5231 -35.5231 -35.5231) to (35.5231 35.5231 35.5231)
  reading atoms ...
  32000 atoms
  reading velocities ...
  32000 velocities
pair_style      eam/alloy
pair_coeff      * *   /HOME/hust_hbyu_1/Samples/Ni80P20_C20/dat/NiP.lammps.eam Ni P
mass            1  58.69
mass			2  30.97
neigh_modify    delay 5
timestep 0.01
thermo 100000
reset_timestep 0
thermo_style custom step temp pe etotal press vol lx ly lz
fix             1 all nvt temp 475 475 0.5
thermo_modify flush yes
fix dsf all deform 1 x  wiggle 0.5    300000.0   y volume z volume units box
fix ps1 all ave/time 1 1 300000 c_thermo_press[1] c_thermo_press[2]  c_thermo_press[3] c_thermo_press[4]  c_thermo_press[5] c_thermo_press[6]  file  YDMA475K-stress-300ns.txt
dump            1 all custom 10000000 YDMA475K-300ns.lammpstrj id type x y z
dump_modify 1 sort id
run 150000000
  1 neighbor list requests
  update every 1 steps, delay 5 steps, check yes
Step Temp PotEng TotEng Press Volume Lx Ly Lz
0    475.04644   -144526.86   -142561.98   -1205.2773    358611.12    71.046265    71.046265    71.046265
Averages over the last 751 of 1501 rows, steps 75000000 to 150000000:
Temp PotEng TotEng Press Volume Lx Ly Lz
475.005 -144435 -142470 648.713 358611 70.9827 71.0787 71.0787
Loop time of 332354 on 120 procs (120 MPI x 1 OpenMP) for 150000000 steps with 32000 atoms

Pair  time (%) = 242001 (72.8143)
Neigh time (%) = 14406 (4.33454)
Comm  time (%) = 52918.7 (15.9224)
Outpt time (%) = 1.74887 (0.000526207)
Other time (%) = 23026.3 (6.92826)

write_restart  dms300ns_475-10c.rst
clear
#jump YDMA495-300ns.lmp
