units           metal
boundary        p p p
atom_style      atomic
read_data      /HOME/hust_hbyu_1/Samples/Ni80P20_C20/dat/T435.dat
  orthogonal box = (-35.4906 -35.4906 -35.4906) to (35.4906 35.4906 35.4906)
  reading atoms ...
  32000 atoms
  reading velocities ...
  32000 velocities
pair_style      eam/alloy
pair_coeff      * *   /HOME/hust_hbyu_1/Samples/Ni80P20_C20/dat/NiP.lammps.eam Ni P
mass            1  58.69
mass			2  30.97
neigh_modify    delay 5
timestep 0.01
thermo 100000
reset_timestep 0
thermo_style custom step temp pe etotal press vol lx ly lz
fix             1 all nvt temp 435 435 0.5
thermo_modify flush yes
fix dsf all deform 1 x  wiggle 0.5    300000.0   y volume z volume units box
fix ps1 all ave/time 1 1 300000 c_thermo_press[1] c_thermo_press[2]  c_thermo_press[3] c_thermo_press[4]  c_thermo_press[5] c_thermo_press[6]  file  YDMA435K-stress-300ns.txt
dump            1 all custom 10000000 YDMA435K-300ns.lammpstrj id type x y z
dump_modify 1 sort id
run 150000000
  1 neighbor list requests
  update every 1 steps, delay 5 steps, check yes
Step Temp PotEng TotEng Press Volume Lx Ly Lz
0    432.53465   -144727.34   -142938.29     129.0652    357625.67    70.981128    70.981128    70.981128
Averages over the last 751 of 1501 rows, steps 75000000 to 150000000:
Temp PotEng TotEng Press Volume Lx Ly Lz
434.863 -144645 -142846 1581.69 357626 70.9176 71.0136 71.0136
Loop time of 326396 on 120 procs (120 MPI x 1 OpenMP) for 150000000 steps with 32000 atoms

Pair  time (%) = 240715 (73.7493)
Neigh time (%) = 12938.8 (3.96414)
Comm  time (%) = 50147.1 (15.3639)
Outpt time (%) = 2.03895 (0.000624687)
Other time (%) = 22593.3 (6.92205)

write_restart  dms300ns_435-10c.rst
clear
#jump YDMA455-300ns.lmp
