units           metal
boundary        p p p
atom_style      atomic
read_data      /HOME/hust_hbyu_1/Samples/Ni80P20_C20/dat/T355.dat
  orthogonal box = (-35.4485 -35.4485 -35.4485) to (35.4485 35.4485 35.4485)
  reading atoms ...
  32000 atoms
  reading velocities ...
  32000 velocities
pair_style      eam/alloy
pair_coeff      * *   /HOME/hust_hbyu_1/Samples/Ni80P20_C20/dat/NiP.lammps.eam Ni P
mass            1  58.69
mass			2  30.97
neigh_modify    delay 5
timestep 0.01
thermo 100000
reset_timestep 0
thermo_style custom step temp pe etotal press vol lx ly lz
fix             1 all nvt temp 355 355 0.5
thermo_modify flush yes
fix dsf all deform 1 x  wiggle 0.5    300000.0   y volume z volume units box
fix ps1 all ave/time 1 1 300000 c_thermo_press[1] c_thermo_press[2]  c_thermo_press[3] c_thermo_press[4]  c_thermo_press[5] c_thermo_press[6]  file  YDMA355K-stress-300ns.txt
dump            1 all custom 10000000 YDMA355K-300ns.lammpstrj id type x y z
dump_modify 1 sort id
run 150000000
  1 neighbor list requests
  update every 1 steps, delay 5 steps, check yes
Step Temp PotEng TotEng Press Volume Lx Ly Lz
0    354.82206   -145099.95   -143632.33   -1079.0093    356355.65    70.897004    70.897004    70.897004
Averages over the last 751 of 1501 rows, steps 75000000 to 150000000:
Temp PotEng TotEng Press Volume Lx Ly Lz
355.079 -145037 -143568 316.446 356356 70.8334 70.9295 70.9295
Loop time of 339513 on 120 procs (120 MPI x 1 OpenMP) for 150000000 steps with 32000 atoms

Pair  time (%) = 248892 (73.3085)
Neigh time (%) = 9918.83 (2.92149)
Comm  time (%) = 56817.6 (16.7351)
Outpt time (%) = 2.60462 (0.000767164)
Other time (%) = 23881.8 (7.03414)

write_restart  dms300ns_355-10c.rst
clear
#jump YDMA375-300ns.lmp
