units           metal
boundary        p p p
atom_style      atomic
read_data      /HOME/hust_hbyu_1/Samples/Ni80P20_C20/dat/T370.dat
  orthogonal box = (-35.4514 -35.4514 -35.4514) to (35.4514 35.4514 35.4514)
  reading atoms ...
  32000 atoms
  reading velocities ...
  32000 velocities
pair_style      eam/alloy
pair_coeff      * *   /HOME/hust_hbyu_1/Samples/Ni80P20_C20/dat/NiP.lammps.eam Ni P
mass            1  58.69
mass			2  30.97
neigh_modify    delay 5
timestep 0.01
thermo 100000
reset_timestep 0
thermo_style custom step temp pe etotal press vol lx ly lz
fix             1 all nvt temp 370 370 0.5
thermo_modify flush yes
fix dsf all deform 1 x  wiggle 0.5    300000.0   y volume z volume units box
fix ps1 all ave/time 1 1 300000 c_thermo_press[1] c_thermo_press[2]  c_thermo_press[3] c_thermo_press[4]  c_thermo_press[5] c_thermo_press[6]  file  YDMA370K-stress-300ns.txt
dump            1 all custom 10000000 YDMA370K-300ns.lammpstrj id type x y z
dump_modify 1 sort id
run 150000000
  1 neighbor list requests
  update every 1 steps, delay 5 steps, check yes
Step Temp PotEng TotEng Press Volume Lx Ly Lz
0    369.32043   -145039.17   -143511.59   -74.313421    356441.66    70.902707    70.902707    70.902707
Averages over the last 751 of 1501 rows, steps 75000000 to 150000000:
Temp PotEng TotEng Press Volume Lx Ly Lz
370.044 -144966 -143435 1352.04 356442 70.8391 70.9352 70.9352
Loop time of 313407 on 120 procs (120 MPI x 1 OpenMP) for 150000000 steps with 32000 atoms

Pair  time (%) = 239333 (76.365)
Neigh time (%) = 10450.8 (3.33458)
Comm  time (%) = 47422.9 (15.1314)
Outpt time (%) = 1.36474 (0.000435453)
Other time (%) = 16198.8 (5.16861)

write_restart  dms300ns_370-10c.rst
clear
#jump YDMA390-300ns.lmp
