units           metal
boundary        p p p
atom_style      atomic
read_data      /HOME/hust_hbyu_1/Samples/Ni80P20_C20/dat/T300.dat
  orthogonal box = (-35.4067 -35.4067 -35.4067) to (35.4067 35.4067 35.4067)
  reading atoms ...
  32000 atoms
  reading velocities ...
  32000 velocities
pair_style      eam/alloy
pair_coeff      * *   /HOME/hust_hbyu_1/Samples/Ni80P20_C20/dat/NiP.lammps.eam Ni P
mass            1  58.69
mass			2  30.97
neigh_modify    delay 5
timestep 0.01
thermo 100000
reset_timestep 0
thermo_style custom step temp pe etotal press vol lx ly lz
fix             1 all nvt temp 300 300 0.5
thermo_modify flush yes
fix dsf all deform 1 x  wiggle 0.5    300000.0   y volume z volume units box
fix ps1 all ave/time 1 1 300000 c_thermo_press[1] c_thermo_press[2]  c_thermo_press[3] c_thermo_press[4]  c_thermo_press[5] c_thermo_press[6]  file  YDMA300K-stress-300ns.txt
dump            1 all custom 10000000 YDMA300K-300ns.lammpstrj id type x y z
dump_modify 1 sort id
run 150000000
  1 neighbor list requests
  update every 1 steps, delay 5 steps, check yes
Step Temp PotEng TotEng Press Volume Lx Ly Lz
0     299.3185   -145354.59   -144116.55    714.92899    355097.06     70.81344     70.81344     70.81344
Averages over the last 751 of 1501 rows, steps 75000000 to 150000000:
Temp PotEng TotEng Press Volume Lx Ly Lz
299.974 -145306 -144066 1582.09 355097 70.7499 70.8459 70.8459
Loop time of 461013 on 120 procs (120 MPI x 1 OpenMP) for 150000000 steps with 32000 atoms

Pair  time (%) = 309041 (67.0351)
Neigh time (%) = 8540.84 (1.85262)
Comm  time (%) = 112091 (24.314)
Outpt time (%) = 5.18085 (0.0011238)
Other time (%) = 31335.6 (6.79712)

write_restart  dms300ns_300-10c.rst
clear
#jump YDMA320-300ns.lmp
