units           metal
boundary        p p p
atom_style      atomic
read_data      /HOME/hust_hbyu_1/Samples/Ni80P20_C20/dat/T440.dat
  orthogonal box = (-35.4927 -35.4927 -35.4927) to (35.4927 35.4927 35.4927)
  reading atoms ...
  32000 atoms
  reading velocities ...
  32000 velocities
pair_style      eam/alloy
pair_coeff      * *   /HOME/hust_hbyu_1/Samples/Ni80P20_C20/dat/NiP.lammps.eam Ni P
mass            1  58.69
mass			2  30.97
neigh_modify    delay 5
timestep 0.01
thermo 100000
reset_timestep 0
thermo_style custom step temp pe etotal press vol lx ly lz
fix             1 all nvt temp 440 440 0.5
thermo_modify flush yes
fix dsf all deform 1 x  wiggle 0.5    300000.0   y volume z volume units box
fix ps1 all ave/time 1 1 300000 c_thermo_press[1] c_thermo_press[2]  c_thermo_press[3] c_thermo_press[4]  c_thermo_press[5] c_thermo_press[6]  file  YDMA440K-stress-300ns.txt
dump            1 all custom 10000000 YDMA440K-300ns.lammpstrj id type x y z
dump_modify 1 sort id
run 150000000
  1 neighbor list requests
  update every 1 steps, delay 5 steps, check yes
Step Temp PotEng TotEng Press Volume Lx Ly Lz
0    444.39068   -144682.77   -142844.68    748.80699    357691.15     70.98546     70.98546     70.98546
Averages over the last 751 of 1501 rows, steps 75000000 to 150000000:
Temp PotEng TotEng Press Volume Lx Ly Lz
439.906 -144621 -142801 1829.14 357691 70.9219 71.0179 71.0179
Loop time of 336580 on 120 procs (120 MPI x 1 OpenMP) for 150000000 steps with 32000 atoms

Pair  time (%) = 245174 (72.8428)
Neigh time (%) = 13097.8 (3.89144)
Comm  time (%) = 58741.8 (17.4525)
Outpt time (%) = 1.03332 (0.000307005)
Other time (%) = 19565.2 (5.81293)

write_restart  dms300ns_440-10c.rst
clear
#jump YDMA460-300ns.lmp
