units           metal
boundary        p p p
atom_style      atomic
read_data      /HOME/hust_hbyu_1/Samples/Ni80P20_C20/dat/T360.dat
  orthogonal box = (-35.4469 -35.4469 -35.4469) to (35.4469 35.4469 35.4469)
  reading atoms ...
  32000 atoms
  reading velocities ...
  32000 velocities
pair_style      eam/alloy
pair_coeff      * *   /HOME/hust_hbyu_1/Samples/Ni80P20_C20/dat/NiP.lammps.eam Ni P
mass            1  58.69
mass			2  30.97
neigh_modify    delay 5
timestep 0.01
thermo 100000
reset_timestep 0
thermo_style custom step temp pe etotal press vol lx ly lz
fix             1 all nvt temp 360 360 0.5
thermo_modify flush yes
fix dsf all deform 1 x  wiggle 0.5    300000.0   y volume z volume units box
fix ps1 all ave/time 1 1 300000 c_thermo_press[1] c_thermo_press[2]  c_thermo_press[3] c_thermo_press[4]  c_thermo_press[5] c_thermo_press[6]  file  YDMA360K-stress-300ns.txt
dump            1 all custom 10000000 YDMA360K-300ns.lammpstrj id type x y z
dump_modify 1 sort id
run 150000000
  1 neighbor list requests
  update every 1 steps, delay 5 steps, check yes
Step Temp PotEng TotEng Press Volume Lx Ly Lz
0    358.90905   -145082.45   -143597.94   -58.403404    356306.97    70.893775    70.893775    70.893775
Averages over the last 751 of 1501 rows, steps 75000000 to 150000000:
Temp PotEng TotEng Press Volume Lx Ly Lz
359.898 -145015 -143526 1043.74 356307 70.8302 70.9262 70.9262
Loop time of 338141 on 120 procs (120 MPI x 1 OpenMP) for 150000000 steps with 32000 atoms

Pair  time (%) = 254406 (75.2367)
Neigh time (%) = 10071.8 (2.97859)
Comm  time (%) = 52193.4 (15.4354)
Outpt time (%) = 1.78445 (0.000527724)
Other time (%) = 21467.8 (6.34877)

write_restart  dms300ns_360-10c.rst
clear
#jump YDMA380-300ns.lmp
