units           metal
boundary        p p p
atom_style      atomic
read_data      /HOME/hust_hbyu_1/Samples/Ni80P20_C20/dat/T555.dat
  orthogonal box = (-35.5739 -35.5739 -35.5739) to (35.5739 35.5739 35.5739)
  reading atoms ...
  32000 atoms
  reading velocities ...
  32000 velocities
pair_style      eam/alloy
pair_coeff      * *   /HOME/hust_hbyu_1/Samples/Ni80P20_C20/dat/NiP.lammps.eam Ni P
mass            1  58.69
mass			2  30.97
neigh_modify    delay 5
timestep 0.01
thermo 100000
reset_timestep 0
thermo_style custom step temp pe etotal press vol lx ly lz
fix             1 all nvt temp 555 555 0.5
thermo_modify flush yes
fix dsf all deform 1 x  wiggle 0.5    300000.0   y volume z volume units box
fix ps1 all ave/time 1 1 300000 c_thermo_press[1] c_thermo_press[2]  c_thermo_press[3] c_thermo_press[4]  c_thermo_press[5] c_thermo_press[6]  file  YDMA555K-stress-300ns.txt
dump            1 all custom 10000000 YDMA555K-300ns.lammpstrj id type x y z
dump_modify 1 sort id
run 150000000
  1 neighbor list requests
  update every 1 steps, delay 5 steps, check yes
Step Temp PotEng TotEng Press Volume Lx Ly Lz
0    554.37406   -144079.13   -141786.13    139.72696    360149.38    71.147704    71.147704    71.147704
Averages over the last 751 of 1501 rows, steps 75000000 to 150000000:
Temp PotEng TotEng Press Volume Lx Ly Lz
555.156 -143942 -141646 2698.43 360149 71.0841 71.1802 71.1802
Loop time of 331911 on 120 procs (120 MPI x 1 OpenMP) for 150000000 steps with 32000 atoms

Pair  time (%) = 242810 (73.1551)
Neigh time (%) = 17257.8 (5.19953)
Comm  time (%) = 52823.6 (15.915)
Outpt time (%) = 2.00804 (0.000604993)
Other time (%) = 19017.9 (5.72981)

write_restart  dms300ns_555-10c.rst
clear
#jump YDMA575-300ns.lmp
