units           metal
boundary        p p p
atom_style      atomic
read_data      /HOME/hust_hbyu_1/Samples/Ni80P20_C20/dat/T520.dat
  orthogonal box = (-35.5466 -35.5466 -35.5466) to (35.5466 35.5466 35.5466)
  reading atoms ...
  32000 atoms
  reading velocities ...
  32000 velocities
pair_style      eam/alloy
pair_coeff      * *   /HOME/hust_hbyu_1/Samples/Ni80P20_C20/dat/NiP.lammps.eam Ni P
mass            1  58.69
mass			2  30.97
neigh_modify    delay 5
timestep 0.01
thermo 100000
reset_timestep 0
thermo_style custom step temp pe etotal press vol lx ly lz
fix             1 all nvt temp 520 520 0.5
thermo_modify flush yes
fix dsf all deform 1 x  wiggle 0.5    300000.0   y volume z volume units box
fix ps1 all ave/time 1 1 300000 c_thermo_press[1] c_thermo_press[2]  c_thermo_press[3] c_thermo_press[4]  c_thermo_press[5] c_thermo_press[6]  file  YDMA520K-stress-300ns.txt
dump            1 all custom 10000000 YDMA520K-300ns.lammpstrj id type x y z
dump_modify 1 sort id
run 150000000
  1 neighbor list requests
  update every 1 steps, delay 5 steps, check yes
Step Temp PotEng TotEng Press Volume Lx Ly Lz
0    519.89374   -144285.24   -142134.86    381.02263    359320.88    71.093105    71.093105    71.093105
Averages over the last 751 of 1501 rows, steps 75000000 to 150000000:
Temp PotEng TotEng Press Volume Lx Ly Lz
519.876 -144196 -142046 1758.42 359321 71.0295 71.1256 71.1256
Loop time of 340597 on 120 procs (120 MPI x 1 OpenMP) for 150000000 steps with 32000 atoms

Pair  time (%) = 239078 (70.1937)
Neigh time (%) = 15977.4 (4.691)
Comm  time (%) = 54272.1 (15.9344)
Outpt time (%) = 0.868645 (0.000255036)
Other time (%) = 31269 (9.18064)

write_restart  dms300ns_520-10c.rst
clear
#jump YDMA540-300ns.lmp
