units           metal
boundary        p p p
atom_style      atomic
read_data      /HOME/hust_hbyu_1/Samples/Ni80P20_C20/dat/T510.dat
  orthogonal box = (-35.5362 -35.5362 -35.5362) to (35.5362 35.5362 35.5362)
  reading atoms ...
  32000 atoms
  reading velocities ...
  32000 velocities
pair_style      eam/alloy
pair_coeff      * *   /HOME/hust_hbyu_1/Samples/Ni80P20_C20/dat/NiP.lammps.eam Ni P
mass            1  58.69
mass			2  30.97
neigh_modify    delay 5
timestep 0.01
thermo 100000
reset_timestep 0
thermo_style custom step temp pe etotal press vol lx ly lz
fix             1 all nvt temp 510 510 0.5
thermo_modify flush yes
fix dsf all deform 1 x  wiggle 0.5    300000.0   y volume z volume units box
fix ps1 all ave/time 1 1 300000 c_thermo_press[1] c_thermo_press[2]  c_thermo_press[3] c_thermo_press[4]  c_thermo_press[5] c_thermo_press[6]  file  YDMA510K-stress-300ns.txt
dump            1 all custom 10000000 YDMA510K-300ns.lammpstrj id type x y z
dump_modify 1 sort id
run 150000000
  1 neighbor list requests
  update every 1 steps, delay 5 steps, check yes
Step Temp PotEng TotEng Press Volume Lx Ly Lz
0     506.4776   -144351.65   -142256.76    626.77524    359007.76    71.072449    71.072449    71.072449
Averages over the last 751 of 1501 rows, steps 75000000 to 150000000:
Temp PotEng TotEng Press Volume Lx Ly Lz
510.101 -144256 -142146 2183.07 359008 71.0089 71.1049 71.1049
Loop time of 332550 on 120 procs (120 MPI x 1 OpenMP) for 150000000 steps with 32000 atoms

Pair  time (%) = 241228 (72.5387)
Neigh time (%) = 15610.2 (4.69409)
Comm  time (%) = 52917.5 (15.9126)
Outpt time (%) = 2.15666 (0.000648522)
Other time (%) = 22792.7 (6.85391)

write_restart  dms300ns_510-10c.rst
clear
#jump YDMA530-300ns.lmp
