units           metal
boundary        p p p
atom_style      atomic
read_data      /HOME/hust_hbyu_1/Samples/Ni80P20_C20/dat/T430.dat
  orthogonal box = (-35.4926 -35.4926 -35.4926) to (35.4926 35.4926 35.4926)
  reading atoms ...
  32000 atoms
  reading velocities ...
  32000 velocities
pair_style      eam/alloy
pair_coeff      * *   /HOME/hust_hbyu_1/Samples/Ni80P20_C20/dat/NiP.lammps.eam Ni P
mass            1  58.69
mass			2  30.97
neigh_modify    delay 5
timestep 0.01
thermo 100000
reset_timestep 0
thermo_style custom step temp pe etotal press vol lx ly lz
fix             1 all nvt temp 430 430 0.5
thermo_modify flush yes
fix dsf all deform 1 x  wiggle 0.5    300000.0   y volume z volume units box
fix ps1 all ave/time 1 1 300000 c_thermo_press[1] c_thermo_press[2]  c_thermo_press[3] c_thermo_press[4]  c_thermo_press[5] c_thermo_press[6]  file  YDMA430K-stress-300ns.txt
dump            1 all custom 10000000 YDMA430K-300ns.lammpstrj id type x y z
dump_modify 1 sort id
run 150000000
  1 neighbor list requests
  update every 1 steps, delay 5 steps, check yes
Step Temp PotEng TotEng Press Volume Lx Ly Lz
0    429.64323   -144743.25   -142966.16   -672.79549     357686.6    70.985159    70.985159    70.985159
Averages over the last 751 of 1501 rows, steps 75000000 to 150000000:
Temp PotEng TotEng Press Volume Lx Ly Lz
429.973 -144663 -142885 732.515 357687 70.9216 71.0176 71.0176
Loop time of 320397 on 120 procs (120 MPI x 1 OpenMP) for 150000000 steps with 32000 atoms

Pair  time (%) = 240566 (75.0839)
Neigh time (%) = 12802.7 (3.99589)
Comm  time (%) = 50934.8 (15.8974)
Outpt time (%) = 0.781297 (0.000243853)
Other time (%) = 16092.1 (5.02254)

write_restart  dms300ns_430-10c.rst
clear
#jump YDMA450-300ns.lmp
