units           metal
boundary        p p p
atom_style      atomic
read_data      /HOME/hust_hbyu_1/Samples/Ni80P20_C20/dat/T470.dat
  orthogonal box = (-35.5182 -35.5182 -35.5182) to (35.5182 35.5182 35.5182)
  reading atoms ...
  32000 atoms
  reading velocities ...
  32000 velocities
pair_style      eam/alloy
pair_coeff      * *   /HOME/hust_hbyu_1/Samples/Ni80P20_C20/dat/NiP.lammps.eam Ni P
mass            1  58.69
mass			2  30.97
neigh_modify    delay 5
timestep 0.01
thermo 100000
reset_timestep 0
thermo_style custom step temp pe etotal press vol lx ly lz
fix             1 all nvt temp 470 470 0.5
thermo_modify flush yes
fix dsf all deform 1 x  wiggle 0.5    300000.0   y volume z volume units box
fix ps1 all ave/time 1 1 300000 c_thermo_press[1] c_thermo_press[2]  c_thermo_press[3] c_thermo_press[4]  c_thermo_press[5] c_thermo_press[6]  file  YDMA470K-stress-300ns.txt
dump            1 all custom 10000000 YDMA470K-300ns.lammpstrj id type x y z
dump_modify 1 sort id
run 150000000
  1 neighbor list requests
  update every 1 steps, delay 5 steps, check yes
Step Temp PotEng TotEng Press Volume Lx Ly Lz
0    471.51489   -144544.85   -142594.57   -360.77469    358460.54    71.036319    71.036319    71.036319
Averages over the last 751 of 1501 rows, steps 75000000 to 150000000:
Temp PotEng TotEng Press Volume Lx Ly Lz
470.023 -144460 -142516 816.504 358461 70.9727 71.0688 71.0688
Loop time of 320764 on 120 procs (120 MPI x 1 OpenMP) for 150000000 steps with 32000 atoms

Pair  time (%) = 239958 (74.8083)
Neigh time (%) = 14190.8 (4.42406)
Comm  time (%) = 50700.5 (15.8062)
Outpt time (%) = 1.51085 (0.000471016)
Other time (%) = 15913 (4.96098)

write_restart  dms300ns_470-10c.rst
clear
#jump YDMA490-300ns.lmp
