units           metal
boundary        p p p
atom_style      atomic
read_data      /HOME/hust_hbyu_1/Samples/Ni80P20_C20/dat/T530.dat
  orthogonal box = (-35.5569 -35.5569 -35.5569) to (35.5569 35.5569 35.5569)
  reading atoms ...
  32000 atoms
  reading velocities ...
  32000 velocities
pair_style      eam/alloy
pair_coeff      * *   /HOME/hust_hbyu_1/Samples/Ni80P20_C20/dat/NiP.lammps.eam Ni P
mass            1  58.69
mass			2  30.97
neigh_modify    delay 5
timestep 0.01
thermo 100000
reset_timestep 0
thermo_style custom step temp pe etotal press vol lx ly lz
fix             1 all nvt temp 530 530 0.5
thermo_modify flush yes
fix dsf all deform 1 x  wiggle 0.5    300000.0   y volume z volume units box
fix ps1 all ave/time 1 1 300000 c_thermo_press[1] c_thermo_press[2]  c_thermo_press[3] c_thermo_press[4]  c_thermo_press[5] c_thermo_press[6]  file  YDMA530K-stress-300ns.txt
dump            1 all custom 10000000 YDMA530K-300ns.lammpstrj id type x y z
dump_modify 1 sort id
run 150000000
  1 neighbor list requests
  update every 1 steps, delay 5 steps, check yes
Step Temp PotEng TotEng Press Volume Lx Ly Lz
0    529.13121   -144211.79    -142023.2    201.40733    359633.86    71.113741    71.113741    71.113741
Averages over the last 751 of 1501 rows, steps 75000000 to 150000000:
Temp PotEng TotEng Press Volume Lx Ly Lz
529.976 -144128 -141936 1488.51 359634 71.0502 71.1462 71.1462
Loop time of 319692 on 120 procs (120 MPI x 1 OpenMP) for 150000000 steps with 32000 atoms

Pair  time (%) = 238167 (74.4989)
Neigh time (%) = 16349.8 (5.11424)
Comm  time (%) = 49345 (15.4352)
Outpt time (%) = 0.932689 (0.000291746)
Other time (%) = 15829.3 (4.95142)

write_restart  dms300ns_530-10c.rst
clear
#jump YDMA550-300ns.lmp
