units           metal
boundary        p p p
atom_style      atomic
read_data      /HOME/hust_hbyu_1/Samples/Ni80P20_C20/dat/T410.dat
  orthogonal box = (-35.4855 -35.4855 -35.4855) to (35.4855 35.4855 35.4855)
  reading atoms ...
  32000 atoms
  reading velocities ...
  32000 velocities
pair_style      eam/alloy
pair_coeff      * *   /HOME/hust_hbyu_1/Samples/Ni80P20_C20/dat/NiP.lammps.eam Ni P
mass            1  58.69
mass			2  30.97
neigh_modify    delay 5
timestep 0.01
thermo 100000
reset_timestep 0
thermo_style custom step temp pe etotal press vol lx ly lz
fix             1 all nvt temp 410 410 0.5
thermo_modify flush yes
fix dsf all deform 1 x  wiggle 0.5    300000.0   y volume z volume units box
fix ps1 all ave/time 1 1 300000 c_thermo_press[1] c_thermo_press[2]  c_thermo_press[3] c_thermo_press[4]  c_thermo_press[5] c_thermo_press[6]  file  YDMA410K-stress-300ns.txt
dump            1 all custom 10000000 YDMA410K-300ns.lammpstrj id type x y z
dump_modify 1 sort id
run 150000000
  1 neighbor list requests
  update every 1 steps, delay 5 steps, check yes
Step Temp PotEng TotEng Press Volume Lx Ly Lz
0    406.39895   -144822.46   -143141.51   -1191.6005    357473.16    70.971037    70.971037    70.971037
Averages over the last 751 of 1501 rows, steps 75000000 to 150000000:
Temp PotEng TotEng Press Volume Lx Ly Lz
409.978 -144761 -143065 12.8927 357473 70.9075 71.0035 71.0035
Loop time of 323972 on 120 procs (120 MPI x 1 OpenMP) for 150000000 steps with 32000 atoms

Pair  time (%) = 241644 (74.5879)
Neigh time (%) = 12054.9 (3.72099)
Comm  time (%) = 52614 (16.2403)
Outpt time (%) = 0.685395 (0.00021156)
Other time (%) = 17658.3 (5.45058)

write_restart  dms300ns_410-10c.rst
clear
#jump YDMA430-300ns.lmp
