units           metal
boundary        p p p
atom_style      atomic
read_data      /HOME/hust_hbyu_1/Samples/Ni80P20_C20/dat/T570.dat
  orthogonal box = (-35.5895 -35.5895 -35.5895) to (35.5895 35.5895 35.5895)
  reading atoms ...
  32000 atoms
  reading velocities ...
  32000 velocities
pair_style      eam/alloy
pair_coeff      * *   /HOME/hust_hbyu_1/Samples/Ni80P20_C20/dat/NiP.lammps.eam Ni P
mass            1  58.69
mass			2  30.97
neigh_modify    delay 5
timestep 0.01
thermo 100000
reset_timestep 0
thermo_style custom step temp pe etotal press vol lx ly lz
fix             1 all nvt temp 570 570 0.5
thermo_modify flush yes
fix dsf all deform 1 x  wiggle 0.5    300000.0   y volume z volume units box
fix ps1 all ave/time 1 1 300000 c_thermo_press[1] c_thermo_press[2]  c_thermo_press[3] c_thermo_press[4]  c_thermo_press[5] c_thermo_press[6]  file  YDMA570K-stress-300ns.txt
dump            1 all custom 10000000 YDMA570K-300ns.lammpstrj id type x y z
dump_modify 1 sort id
run 150000000
  1 neighbor list requests
  update every 1 steps, delay 5 steps, check yes
Step Temp PotEng TotEng Press Volume Lx Ly Lz
0    569.43758   -143918.29   -141562.98    1732.2287    360624.46    71.178974    71.178974    71.178974
Averages over the last 751 of 1501 rows, steps 75000000 to 150000000:
Temp PotEng TotEng Press Volume Lx Ly Lz
569.782 -143801 -141444 3187.62 360624 71.1154 71.2114 71.2114
Loop time of 323911 on 120 procs (120 MPI x 1 OpenMP) for 150000000 steps with 32000 atoms

Pair  time (%) = 239138 (73.8285)
Neigh time (%) = 17798.6 (5.4949)
Comm  time (%) = 51256.8 (15.8244)
Outpt time (%) = 0.696877 (0.000215145)
Other time (%) = 15716.1 (4.85199)

write_restart  dms300ns_570-10c.rst
clear
#jump YDMA590-300ns.lmp
