units           metal
boundary        p p p
atom_style      atomic
read_data      /HOME/hust_hbyu_1/Samples/Ni80P20_C20/dat/T480.dat
  orthogonal box = (-35.5232 -35.5232 -35.5232) to (35.5232 35.5232 35.5232)
  reading atoms ...
  32000 atoms
  reading velocities ...
  32000 velocities
pair_style      eam/alloy
pair_coeff      * *   /HOME/hust_hbyu_1/Samples/Ni80P20_C20/dat/NiP.lammps.eam Ni P
mass            1  58.69
mass			2  30.97
neigh_modify    delay 5
timestep 0.01
thermo 100000
reset_timestep 0
thermo_style custom step temp pe etotal press vol lx ly lz
fix             1 all nvt temp 480 480 0.5
thermo_modify flush yes
fix dsf all deform 1 x  wiggle 0.5    300000.0   y volume z volume units box
fix ps1 all ave/time 1 1 300000 c_thermo_press[1] c_thermo_press[2]  c_thermo_press[3] c_thermo_press[4]  c_thermo_press[5] c_thermo_press[6]  file  YDMA480K-stress-300ns.txt
dump            1 all custom 10000000 YDMA480K-300ns.lammpstrj id type x y z
dump_modify 1 sort id
run 150000000
  1 neighbor list requests
  update every 1 steps, delay 5 steps, check yes
Step Temp PotEng TotEng Press Volume Lx Ly Lz
0    480.83421   -144494.76   -142505.93   -405.48776    358613.22    71.046404    71.046404    71.046404
Averages over the last 751 of 1501 rows, steps 75000000 to 150000000:
Temp PotEng TotEng Press Volume Lx Ly Lz
479.962 -144409 -142423 1143.64 358613 70.9828 71.0789 71.0789
Loop time of 339591 on 120 procs (120 MPI x 1 OpenMP) for 150000000 steps with 32000 atoms

Pair  time (%) = 239727 (70.593)
Neigh time (%) = 14569.2 (4.29022)
Comm  time (%) = 54849.2 (16.1516)
Outpt time (%) = 0.821638 (0.00024195)
Other time (%) = 30444.4 (8.96502)

write_restart  dms300ns_480-10c.rst
clear
#jump YDMA500-300ns.lmp
