units           metal
boundary        p p p
atom_style      atomic
read_data      /HOME/hust_hbyu_1/Samples/Ni80P20_C20/dat/T320.dat
  orthogonal box = (-35.4234 -35.4234 -35.4234) to (35.4234 35.4234 35.4234)
  reading atoms ...
  32000 atoms
  reading velocities ...
  32000 velocities
pair_style      eam/alloy
pair_coeff      * *   /HOME/hust_hbyu_1/Samples/Ni80P20_C20/dat/NiP.lammps.eam Ni P
mass            1  58.69
mass			2  30.97
neigh_modify    delay 5
timestep 0.01
thermo 100000
reset_timestep 0
thermo_style custom step temp pe etotal press vol lx ly lz
fix             1 all nvt temp 320 320 0.5
thermo_modify flush yes
fix dsf all deform 1 x  wiggle 0.5    300000.0   y volume z volume units box
fix ps1 all ave/time 1 1 300000 c_thermo_press[1] c_thermo_press[2]  c_thermo_press[3] c_thermo_press[4]  c_thermo_press[5] c_thermo_press[6]  file  YDMA320K-stress-300ns.txt
dump            1 all custom 10000000 YDMA320K-300ns.lammpstrj id type x y z
dump_modify 1 sort id
run 150000000
  1 neighbor list requests
  update every 1 steps, delay 5 steps, check yes
Step Temp PotEng TotEng Press Volume Lx Ly Lz
0     319.7352   -145268.13   -143945.64   -268.80911    355598.33    70.846746    70.846746    70.846746
Averages over the last 751 of 1501 rows, steps 75000000 to 150000000:
Temp PotEng TotEng Press Volume Lx Ly Lz
319.987 -145209 -143885 922.483 355598 70.7832 70.8792 70.8792
Loop time of 335163 on 120 procs (120 MPI x 1 OpenMP) for 150000000 steps with 32000 atoms

Pair  time (%) = 252552 (75.3521)
Neigh time (%) = 8516.13 (2.5409)
Comm  time (%) = 54781.5 (16.3448)
Outpt time (%) = 0.80928 (0.000241459)
Other time (%) = 19312 (5.76199)

write_restart  dms300ns_320-10c.rst
clear
#jump YDMA340-300ns.lmp
