units           metal
boundary        p p p
atom_style      atomic
read_data      ../../restart/T590.dat
Reading data file ...
  orthogonal box = (-2.4620705 -2.4620705 -2.4620705) to (80.296848 80.296848 80.296848)
  reading atoms ...
  32000 atoms
  reading velocities ...
  32000 velocities
pair_style      eam/alloy
pair_coeff      * *  ../../ZrCu.lammps.eam Zr Cu
mass 1 91.224
mass 2 63.546
neighbor            2.0 bin
neigh_modify     delay 1
timestep 0.01
thermo 1000000
reset_timestep 0
thermo_style custom step temp pe etotal press vol lx ly lz
fix             1 all nvt temp 590 590 0.1
thermo_modify flush yes
fix nodrift all momentum 1  linear 1 1 1
fix com_seed all recenter INIT INIT INIT shift all
fix dsf all deform 1 x  wiggle 1.0  1000000.0 y volume z volume units box
fix ps1 all ave/time 1 1 1000000 c_thermo_press[1] c_thermo_press[2]  c_thermo_press[3] c_thermo_press[4]  c_thermo_press[5] c_thermo_press[6]  file  stress.590
dump            1 all custom 100000000 dump.590 id type x y z
dump_modify 1 sort id
run 1000000000
  update every 1 steps, delay 1 steps, check yes
Step Temp PotEng TotEng Press Volume Lx Ly Lz
0    588.26843   -157309.36   -154876.16   -47.730263    566819.03    82.758919    82.758919    82.758919
Averages over the last 501 of 1001 rows, steps 500000000 to 1000000000:
Temp PotEng TotEng Press Volume Lx Ly Lz
590.006 -157324 -154884 64.723 566819 82.7589 82.7612 82.7612
Loop time of 599233 on 104 procs for 1000000000 steps with 32000 atoms

#clear
#jump dms600.lmp
