units           metal
boundary        p p p
atom_style      atomic
read_data      ../../restart/T550.dat
Reading data file ...
  orthogonal box = (-2.4424434 -2.4424434 -2.4424434) to (80.277221 80.277221 80.277221)
  reading atoms ...
  32000 atoms
  reading velocities ...
  32000 velocities
pair_style      eam/alloy
pair_coeff      * *  ../../ZrCu.lammps.eam Zr Cu
mass 1 91.224
mass 2 63.546
neighbor            2.0 bin
neigh_modify     delay 1
timestep 0.01
thermo 1000000
reset_timestep 0
thermo_style custom step temp pe etotal press vol lx ly lz
fix             1 all nvt temp 550 550 0.1
thermo_modify flush yes
fix nodrift all momentum 1  linear 1 1 1
fix com_seed all recenter INIT INIT INIT shift all
fix dsf all deform 1 x  wiggle 1.0  1000000.0 y volume z volume units box
fix ps1 all ave/time 1 1 1000000 c_thermo_press[1] c_thermo_press[2]  c_thermo_press[3] c_thermo_press[4]  c_thermo_press[5] c_thermo_press[6]  file  stress.550
dump            1 all custom 100000000 dump.550 id type x y z
dump_modify 1 sort id
run 1000000000
  update every 1 steps, delay 1 steps, check yes
Step Temp PotEng TotEng Press Volume Lx Ly Lz
0    546.23631   -157509.24    -155249.9    9.1437348    566012.85    82.719664    82.719664    82.719664
Averages over the last 501 of 1001 rows, steps 500000000 to 1000000000:
Temp PotEng TotEng Press Volume Lx Ly Lz
549.924 -157495 -155220 51.6106 566013 82.7197 82.7219 82.7219
Loop time of 584822 on 104 procs for 1000000000 steps with 32000 atoms

#clear
#jump dms560.lmp
