units           metal
boundary        p p p
atom_style      atomic
read_data      ../../restart/T410.dat
Reading data file ...
  orthogonal box = (-2.3718155 -2.3718155 -2.3718155) to (80.206593 80.206593 80.206593)
  reading atoms ...
  32000 atoms
  reading velocities ...
  32000 velocities
pair_style      eam/alloy
pair_coeff      * *  ../../ZrCu.lammps.eam Zr Cu
mass 1 91.224
mass 2 63.546
neighbor            2.0 bin
neigh_modify     delay 1
timestep 0.01
thermo 1000000
reset_timestep 0
thermo_style custom step temp pe etotal press vol lx ly lz
fix             1 all nvt temp 410 410 0.1
thermo_modify flush yes
fix nodrift all momentum 1  linear 1 1 1
fix com_seed all recenter INIT INIT INIT shift all
fix dsf all deform 1 x  wiggle 1.0  1000000.0 y volume z volume units box
fix ps1 all ave/time 1 1 1000000 c_thermo_press[1] c_thermo_press[2]  c_thermo_press[3] c_thermo_press[4]  c_thermo_press[5] c_thermo_press[6]  file  stress.410
dump            1 all custom 100000000 dump.410 id type x y z
dump_modify 1 sort id
run 1000000000
  update every 1 steps, delay 1 steps, check yes
Step Temp PotEng TotEng Press Volume Lx Ly Lz
0    411.84576      -158157   -156453.52    -194.6674    563118.15    82.578409    82.578409    82.578409
Averages over the last 501 of 1001 rows, steps 500000000 to 1000000000:
Temp PotEng TotEng Press Volume Lx Ly Lz
409.93 -158122 -156426 115.565 563118 82.5784 82.5807 82.5807
Loop time of 583598 on 104 procs for 1000000000 steps with 32000 atoms

#clear
#jump dms420.lmp
