units           metal
boundary        p p p
atom_style      atomic
read_data      ../../restart/T680.dat
Reading data file ...
  orthogonal box = (-2.5137656 -2.5137656 -2.5137656) to (80.348543 80.348543 80.348543)
  reading atoms ...
  32000 atoms
  reading velocities ...
  32000 velocities
pair_style      eam/alloy
pair_coeff      * *  ../../ZrCu.lammps.eam Zr Cu
mass 1 91.224
mass 2 63.546
neighbor            2.0 bin
neigh_modify     delay 1
timestep 0.01
thermo 1000000
reset_timestep 0
thermo_style custom step temp pe etotal press vol lx ly lz
fix             1 all nvt temp 680 680 0.1
thermo_modify flush yes
fix nodrift all momentum 1  linear 1 1 1
fix com_seed all recenter INIT INIT INIT shift all
fix dsf all deform 1 x  wiggle 1.0  1000000.0 y volume z volume units box
fix ps1 all ave/time 1 1 1000000 c_thermo_press[1] c_thermo_press[2]  c_thermo_press[3] c_thermo_press[4]  c_thermo_press[5] c_thermo_press[6]  file  stress.680
dump            1 all custom 100000000 dump.680 id type x y z
dump_modify 1 sort id
run 1000000000
  update every 1 steps, delay 1 steps, check yes
Step Temp PotEng TotEng Press Volume Lx Ly Lz
0    679.91986   -156775.76   -153963.47    98.819275    568946.05    82.862309    82.862309    82.862309
Averages over the last 501 of 1001 rows, steps 500000000 to 1000000000:
Temp PotEng TotEng Press Volume Lx Ly Lz
679.967 -156769 -153956 224.458 568946 82.8623 82.8646 82.8646
Loop time of 602583 on 104 procs for 1000000000 steps with 32000 atoms

#clear
#jump dms690.lmp
