variable TLJ equal (160/1000)
variable NCyle equal 10
variable iStep equal (1000)
variable dumpStep equal (1000*100)
variable runStep equal (1000*100*10)

units       lj
atom_style  atomic
dimension 3
boundary     p p p
pair_style  lj/cut 2.5
read_data  ../data/T160.dat
Reading data file ...
  orthogonal box = (0.97250269 0.97250269 0.97250269) to (37.866338 37.866338 37.866338)
  reading atoms ...
  70304 atoms
  reading velocities ...
  70304 velocities
change_box all triclinic
Changing box ...
  triclinic box = (0.97250269 0.97250269 0.97250269) to (37.866338 37.866338 37.866338) with tilt (0 0 0)
mass 1 1
mass 2 1
pair_modify shift yes
pair_coeff  1 1 1 1
pair_coeff  1 2 1.5 0.8
pair_coeff  2 2 0.5 0.88

timestep 0.01
thermo 1000
reset_timestep 0
thermo_style custom step temp pe etotal press vol lx ly lz
fix             1 all nvt temp 0.16  0.16  0.1
thermo_modify flush yes

fix dsf all deform 1 xy  wiggle 0.5  1000   units box
fix ps1 all ave/time 1 1 1000 c_thermo_press[1] c_thermo_press[2]  c_thermo_press[3] c_thermo_press[4]  c_thermo_press[5] c_thermo_press[6]  file  stress.160
dump            1 all custom 100000 dump.160 id type x y z
dump_modify 1 sort id
fix nodrift all momentum 1  linear 1 1 1
fix com_seed all recenter INIT INIT INIT shift all
run 1000000
Generated 0 of 1 mixed pair_coeff terms from geometric mixing rule
Step          Temp          PotEng         TotEng         Press          Volume           Lx             Ly             Lz
0   0.16079411    -8.3436499     -8.1024621     -0.73929034     50218.233      36.893836      36.893836      36.893836
Averages over the last 501 of 1001 rows, steps 500000 to 1000000:
Temp PotEng TotEng Press Volume Lx Ly Lz
0.159988 -8.34056 -8.10058 -0.715674 50218.2 36.8938 36.8938 36.8938
Loop time of 1457.3 on 4 procs for 1000000 steps with 70304 atoms

clear
package gpu 0
jump dms140.lmp

variable T equal 140
# T = 1000* (temp in LJ unit)
variable f equal 1000
log log.140
