units           metal
boundary        p p p
atom_style      atomic
read_data    ../../data/data.T875
Reading data file ...
  triclinic box = (6.0562151 6.0562151 6.0562151) to (55.874723 55.874723 55.874723) with tilt (-5.7157505e-15 0 0)
  reading atoms ...
  9088 atoms
  reading velocities ...
  9088 velocities
mass            1   58.693  #Ni
mass            2   92.906  #Nb
pair_style      eam/fs
pair_coeff      * * v1_18_NiNb_B2.eam.fs  Ni Nb
change_box all triclinic
Changing box ...
  triclinic box = (6.0562151 6.0562151 6.0562151) to (55.874723 55.874723 55.874723) with tilt (-5.7157505e-15 0 0)
timestep 0.01
thermo 100000
reset_timestep 0
thermo_style custom step temp pe etotal press vol lx ly lz
fix             1 all nvt/sllod temp 875 875  0.1
thermo_modify flush yes
fix nodrift all momentum 1  linear 1 1 1
fix com_seed all recenter INIT INIT INIT shift all
fix dsf all deform 1 xy  wiggle 1.0  100000   units box  remap v
fix ps1 all ave/time 1 1000  100000 c_thermo_press[1] c_thermo_press[2]  c_thermo_press[3] c_thermo_press[4]  c_thermo_press[5] c_thermo_press[6]  file  stress.875
dump            1 all custom 10000000 dump.875 id type x y z
dump_modify 1 sort id
run 50000000
Using INTEL Package without Coprocessor.
Compiler: GNU C++ 4.8.5 20150623 (Red Hat 4.8.5-28)
SIMD compiler directives: Disabled
Precision: mixed
  update every 1 steps, delay 10 steps, check yes
Step          Temp          PotEng         TotEng         Press          Volume           Lx             Ly             Lz
0   876.75115     -55890.791     -54860.971      1360.8881      123643.74      49.818508      49.818508      49.818508
Averages over the last 251 of 501 rows, steps 25000000 to 50000000:
Temp PotEng TotEng Press Volume Lx Ly Lz
874.699 -55823.3 -54795.9 2664.52 123644 49.8185 49.8185 49.8185
Loop time of 85697.4 on 36 procs for 50000000 steps with 9088 atoms

write_restart T875.rst
System init for write_restart ...
Using INTEL Package without Coprocessor.
Compiler: GNU C++ 4.8.5 20150623 (Red Hat 4.8.5-28)
SIMD compiler directives: Disabled
Precision: mixed
clear
package intel 1
#jump dms895.lmp
