units           metal
boundary        p p p
atom_style      atomic
read_data    ../../data/data.T480
Reading data file ...
  triclinic box = (6.1286693 6.1286693 6.1286693) to (55.802269 55.802269 55.802269) with tilt (-5.6991249e-15 0.0000000 0.0000000)
  reading atoms ...
  9088 atoms
  reading velocities ...
  9088 velocities
mass            1   58.693  #Ni
mass            2   92.906  #Nb
pair_style      eam/fs
pair_coeff      * * v1_18_NiNb_B2.eam.fs  Ni Nb
change_box all triclinic
Changing box ...
  triclinic box = (6.1286693 6.1286693 6.1286693) to (55.802269 55.802269 55.802269) with tilt (-5.6991249e-15 0.0000000 0.0000000)
timestep 0.01
thermo 100000
reset_timestep 0
thermo_style custom step temp pe etotal press vol lx ly lz
fix             1 all nvt/sllod temp 480 480  0.1
thermo_modify flush yes
fix nodrift all momentum 1  linear 1 1 1
fix com_seed all recenter INIT INIT INIT shift all
fix dsf all deform 1 xy  wiggle 1.0  100000   units box  remap v
fix ps1 all ave/time 1 1000  100000 c_thermo_press[1] c_thermo_press[2]  c_thermo_press[3] c_thermo_press[4]  c_thermo_press[5] c_thermo_press[6]  file  stress.480
dump            1 all custom 10000000 dump.480 id type x y z
dump_modify 1 sort id
run 50000000
  update every 1 steps, delay 10 steps, check yes
Step Temp PotEng TotEng Press Volume Lx Ly Lz
0    474.16961   -56411.784    -55854.83    626.24145    122567.94    49.673599    49.673599    49.673599
Averages over the last 251 of 501 rows, steps 25000000 to 50000000:
Temp PotEng TotEng Press Volume Lx Ly Lz
479.95 -56395.9 -55832.2 1343.45 122568 49.6736 49.6736 49.6736
Loop time of 25269.6 on 48 procs for 50000000 steps with 9088 atoms

write_restart T480.rst
System init for write_restart ...
clear
package intel 1
#jump dms460.lmp
