units           metal
boundary        p p p
atom_style      atomic
read_data    ../../data/data.T855
Reading data file ...
  triclinic box = (6.0484377 6.0484377 6.0484377) to (55.8825 55.8825 55.8825) with tilt (-5.7175351e-15 0 0)
  reading atoms ...
  9088 atoms
  reading velocities ...
  9088 velocities
mass            1   58.693  #Ni
mass            2   92.906  #Nb
pair_style      eam/fs
pair_coeff      * * v1_18_NiNb_B2.eam.fs  Ni Nb
change_box all triclinic
Changing box ...
  triclinic box = (6.0484377 6.0484377 6.0484377) to (55.8825 55.8825 55.8825) with tilt (-5.7175351e-15 0 0)
timestep 0.01
thermo 100000
reset_timestep 0
thermo_style custom step temp pe etotal press vol lx ly lz
fix             1 all nvt/sllod temp 855 855  0.1
thermo_modify flush yes
fix nodrift all momentum 1  linear 1 1 1
fix com_seed all recenter INIT INIT INIT shift all
fix dsf all deform 1 xy  wiggle 1.0  100000   units box  remap v
fix ps1 all ave/time 1 1000  100000 c_thermo_press[1] c_thermo_press[2]  c_thermo_press[3] c_thermo_press[4]  c_thermo_press[5] c_thermo_press[6]  file  stress.855
dump            1 all custom 10000000 dump.855 id type x y z
dump_modify 1 sort id
run 50000000
Using INTEL Package without Coprocessor.
Compiler: GNU C++ 4.8.5 20150623 (Red Hat 4.8.5-28)
SIMD compiler directives: Disabled
Precision: mixed
  update every 1 steps, delay 10 steps, check yes
Step          Temp          PotEng         TotEng         Press          Volume           Lx             Ly             Lz
0   859.45892     -55906.18      -54896.671     -772.04466      123759.59      49.834062      49.834062      49.834062
Averages over the last 251 of 501 rows, steps 25000000 to 50000000:
Temp PotEng TotEng Press Volume Lx Ly Lz
855.383 -55863 -54858.3 -100.911 123760 49.8341 49.8341 49.8341
Loop time of 86695.3 on 36 procs for 50000000 steps with 9088 atoms

write_restart T855.rst
System init for write_restart ...
Using INTEL Package without Coprocessor.
Compiler: GNU C++ 4.8.5 20150623 (Red Hat 4.8.5-28)
SIMD compiler directives: Disabled
Precision: mixed
clear
package intel 1
#jump dms875.lmp
