units           metal
boundary        p p p
atom_style      atomic
read_data    ../../data/data.T580
Reading data file ...
  triclinic box = (6.1101654 6.1101654 6.1101654) to (55.820772 55.820772 55.820772) with tilt (-5.7033709e-15 0.0000000 0.0000000)
  reading atoms ...
  9088 atoms
  reading velocities ...
  9088 velocities
mass            1   58.693  #Ni
mass            2   92.906  #Nb
pair_style      eam/fs
pair_coeff      * * v1_18_NiNb_B2.eam.fs  Ni Nb
change_box all triclinic
Changing box ...
  triclinic box = (6.1101654 6.1101654 6.1101654) to (55.820772 55.820772 55.820772) with tilt (-5.7033709e-15 0.0000000 0.0000000)
timestep 0.01
thermo 100000
reset_timestep 0
thermo_style custom step temp pe etotal press vol lx ly lz
fix             1 all nvt/sllod temp 580 580  0.1
thermo_modify flush yes
fix nodrift all momentum 1  linear 1 1 1
fix com_seed all recenter INIT INIT INIT shift all
fix dsf all deform 1 xy  wiggle 1.0  100000   units box  remap v
fix ps1 all ave/time 1 1000  100000 c_thermo_press[1] c_thermo_press[2]  c_thermo_press[3] c_thermo_press[4]  c_thermo_press[5] c_thermo_press[6]  file  stress.580
dump            1 all custom 10000000 dump.580 id type x y z
dump_modify 1 sort id
run 50000000
  update every 1 steps, delay 10 steps, check yes
Step Temp PotEng TotEng Press Volume Lx Ly Lz
0    579.42052   -56292.031   -55611.451    836.16029    122842.09    49.710607    49.710607    49.710607
Averages over the last 251 of 501 rows, steps 25000000 to 50000000:
Temp PotEng TotEng Press Volume Lx Ly Lz
580.436 -56265.5 -55583.8 1159.12 122842 49.7106 49.7106 49.7106
Loop time of 25704.6 on 48 procs for 50000000 steps with 9088 atoms

write_restart T580.rst
System init for write_restart ...
clear
package intel 1
#jump dms560.lmp
