units           metal
boundary        p p p
atom_style      atomic
read_data    ../../data/data.T560
Reading data file ...
  triclinic box = (6.1099707 6.1099707 6.1099707) to (55.820967 55.820967 55.820967) with tilt (-5.7034156e-15 0.0000000 0.0000000)
  reading atoms ...
  9088 atoms
  reading velocities ...
  9088 velocities
mass            1   58.693  #Ni
mass            2   92.906  #Nb
pair_style      eam/fs
pair_coeff      * * v1_18_NiNb_B2.eam.fs  Ni Nb
change_box all triclinic
Changing box ...
  triclinic box = (6.1099707 6.1099707 6.1099707) to (55.820967 55.820967 55.820967) with tilt (-5.7034156e-15 0.0000000 0.0000000)
timestep 0.01
thermo 100000
reset_timestep 0
thermo_style custom step temp pe etotal press vol lx ly lz
fix             1 all nvt/sllod temp 560 560  0.1
thermo_modify flush yes
fix nodrift all momentum 1  linear 1 1 1
fix com_seed all recenter INIT INIT INIT shift all
fix dsf all deform 1 xy  wiggle 1.0  100000   units box  remap v
fix ps1 all ave/time 1 1000  100000 c_thermo_press[1] c_thermo_press[2]  c_thermo_press[3] c_thermo_press[4]  c_thermo_press[5] c_thermo_press[6]  file  stress.560
dump            1 all custom 10000000 dump.560 id type x y z
dump_modify 1 sort id
run 50000000
  update every 1 steps, delay 10 steps, check yes
Step Temp PotEng TotEng Press Volume Lx Ly Lz
0    560.33295   -56317.891   -55659.731   -1144.0821    122844.98    49.710996    49.710996    49.710996
Averages over the last 251 of 501 rows, steps 25000000 to 50000000:
Temp PotEng TotEng Press Volume Lx Ly Lz
560.233 -56291 -55632.9 310.469 122845 49.711 49.711 49.711
Loop time of 25564.6 on 48 procs for 50000000 steps with 9088 atoms

write_restart T560.rst
System init for write_restart ...
clear
package intel 1
#jump dms540.lmp
