units           metal
boundary        p p p
atom_style      atomic
read_data    ../../data/data.T460
Reading data file ...
  triclinic box = (6.1303059 6.1303059 6.1303059) to (55.800632 55.800632 55.800632) with tilt (-5.6987494e-15 0.0000000 0.0000000)
  reading atoms ...
  9088 atoms
  reading velocities ...
  9088 velocities
mass            1   58.693  #Ni
mass            2   92.906  #Nb
pair_style      eam/fs
pair_coeff      * * v1_18_NiNb_B2.eam.fs  Ni Nb
change_box all triclinic
Changing box ...
  triclinic box = (6.1303059 6.1303059 6.1303059) to (55.800632 55.800632 55.800632) with tilt (-5.6987494e-15 0.0000000 0.0000000)
timestep 0.01
thermo 100000
reset_timestep 0
thermo_style custom step temp pe etotal press vol lx ly lz
fix             1 all nvt/sllod temp 460 460  0.1
thermo_modify flush yes
fix nodrift all momentum 1  linear 1 1 1
fix com_seed all recenter INIT INIT INIT shift all
fix dsf all deform 1 xy  wiggle 1.0  100000   units box  remap v
fix ps1 all ave/time 1 1000  100000 c_thermo_press[1] c_thermo_press[2]  c_thermo_press[3] c_thermo_press[4]  c_thermo_press[5] c_thermo_press[6]  file  stress.460
dump            1 all custom 10000000 dump.460 id type x y z
dump_modify 1 sort id
run 50000000
  update every 1 steps, delay 10 steps, check yes
Step Temp PotEng TotEng Press Volume Lx Ly Lz
0    460.40622   -56443.484   -55902.697    582.87077    122543.71    49.670326    49.670326    49.670326
Averages over the last 251 of 501 rows, steps 25000000 to 50000000:
Temp PotEng TotEng Press Volume Lx Ly Lz
459.987 -56421.8 -55881.5 871.79 122544 49.6703 49.6703 49.6703
Loop time of 25219 on 48 procs for 50000000 steps with 9088 atoms

write_restart T460.rst
System init for write_restart ...
clear
package intel 1
#jump dms440.lmp
