units           metal
boundary        p p p
atom_style      atomic
read_data      ../../data/T240.dat
Reading data file ...
  orthogonal box = (-0.15722097 -0.15722097 -0.15722097) to (56.041714 56.041714 56.041714)
  reading atoms ...
  9088 atoms
  reading velocities ...
  9088 velocities
mass            1  26.98	#Al
mass            2  150.36	#Sm
pair_style      eam/fs
pair_coeff      * *  ../../Al90Sm10_MendelevM_2014.eam.fs  Al Sm

neighbor        2.0 bin
neigh_modify    delay 1

timestep 0.01
thermo 1000
reset_timestep 0
thermo_style custom step temp pe etotal press vol lx ly lz
fix             1 all nvt temp 240 240 0.1
thermo_modify flush yes
fix nodrift all momentum 1  linear 1 1 1
fix com_seed all recenter INIT INIT INIT shift all
fix dsf all deform 1 x  wiggle 1.0  1000.0 y volume z volume units box
fix ps1 all ave/time 1 1 1000 c_thermo_press[1] c_thermo_press[2]  c_thermo_press[3] c_thermo_press[4]  c_thermo_press[5] c_thermo_press[6]  file  stress.240
dump            1 all custom 100000 dump.240 id type x y z
dump_modify 1 sort id
run 1000000
  update every 1 steps, delay 1 steps, check yes
Step Temp PotEng TotEng Press Volume Lx Ly Lz
0     237.8023   -38017.173   -37737.854   -40.840048    177494.23    56.198935    56.198935    56.198935
Averages over the last 501 of 1001 rows, steps 500000 to 1000000:
Temp PotEng TotEng Press Volume Lx Ly Lz
240.026 -37994.5 -37712.6 445.993 177494 56.1989 56.2023 56.2023
Loop time of 453.242 on 48 procs for 1000000 steps with 9088 atoms

write_restart rst.240
System init for write_restart ...
clear
package intel 1
jump dms250.lmp
#MD-DMS by Ha-Bin Yu
variable T equal 250
log log.250
