units           metal
boundary        p p p
atom_style      atomic
read_data      ../../data/T400.dat
Reading data file ...
  orthogonal box = (-0.22619405 -0.22619405 -0.22619405) to (56.110687 56.110687 56.110687)
  reading atoms ...
  9088 atoms
  reading velocities ...
  9088 velocities
mass            1  26.98	#Al
mass            2  150.36	#Sm
pair_style      eam/fs
pair_coeff      * *  ../../Al90Sm10_MendelevM_2014.eam.fs  Al Sm

neighbor        2.0 bin
neigh_modify    delay 1

timestep 0.01
thermo 1000
reset_timestep 0
thermo_style custom step temp pe etotal press vol lx ly lz
fix             1 all nvt temp 400 400 0.1
thermo_modify flush yes
fix nodrift all momentum 1  linear 1 1 1
fix com_seed all recenter INIT INIT INIT shift all
fix dsf all deform 1 x  wiggle 1.0  1000.0 y volume z volume units box
fix ps1 all ave/time 1 1 1000 c_thermo_press[1] c_thermo_press[2]  c_thermo_press[3] c_thermo_press[4]  c_thermo_press[5] c_thermo_press[6]  file  stress.400
dump            1 all custom 100000 dump.400 id type x y z
dump_modify 1 sort id
run 1000000
  update every 1 steps, delay 1 steps, check yes
Step Temp PotEng TotEng Press Volume Lx Ly Lz
0    402.24802   -37816.711   -37344.235   -429.80525    178804.48    56.336881    56.336881    56.336881
Averages over the last 501 of 1001 rows, steps 500000 to 1000000:
Temp PotEng TotEng Press Volume Lx Ly Lz
399.997 -37786.3 -37316.5 399.477 178804 56.3369 56.3402 56.3402
Loop time of 462.06 on 48 procs for 1000000 steps with 9088 atoms

write_restart rst.400
System init for write_restart ...
clear
package intel 1
jump dms420.lmp
#MD-DMS by Ha-Bin Yu
variable T equal 420
log log.420
