units           metal
boundary        p p p
atom_style      atomic
read_data      ../../data/T830.dat
Reading data file ...
  orthogonal box = (-0.49553882 -0.49553882 -0.49553882) to (56.380031 56.380031 56.380031)
  reading atoms ...
  9088 atoms
  reading velocities ...
  9088 velocities
mass            1  26.98	#Al
mass            2  150.36	#Sm
pair_style      eam/fs
pair_coeff      * *  ../../Al90Sm10_MendelevM_2014.eam.fs  Al Sm

neighbor        2.0 bin
neigh_modify    delay 1

timestep 0.01
thermo 1000
reset_timestep 0
thermo_style custom step temp pe etotal press vol lx ly lz
fix             1 all nvt temp 830 830 0.1
thermo_modify flush yes
fix nodrift all momentum 1  linear 1 1 1
fix com_seed all recenter INIT INIT INIT shift all
fix dsf all deform 1 x  wiggle 1.0  1000.0 y volume z volume units box
fix ps1 all ave/time 1 1 1000 c_thermo_press[1] c_thermo_press[2]  c_thermo_press[3] c_thermo_press[4]  c_thermo_press[5] c_thermo_press[6]  file  stress.830
dump            1 all custom 100000 dump.830 id type x y z
dump_modify 1 sort id
run 1000000
  update every 1 steps, delay 1 steps, check yes
Step Temp PotEng TotEng Press Volume Lx Ly Lz
0    822.37691   -37037.458   -36071.505   -479.59636    183982.83     56.87557     56.87557     56.87557
Averages over the last 501 of 1001 rows, steps 500000 to 1000000:
Temp PotEng TotEng Press Volume Lx Ly Lz
829.595 -36970.7 -35996.3 1397.61 183983 56.8756 56.8789 56.8789
Loop time of 494.426 on 48 procs for 1000000 steps with 9088 atoms

write_restart rst.830
System init for write_restart ...
clear
package intel 1
jump dms840.lmp
#MD-DMS by Ha-Bin Yu
variable T equal 840
log log.840
