variable TLJ equal (440/1000)
variable NCyle equal 5
variable iStep equal (100000)
variable dumpStep equal (100000*100)
variable runStep equal (100000*100*5)

units       lj
atom_style  atomic
dimension 2
boundary     p p p
pair_style  lj/cut 2.5
read_data ../../../data/data.T440
Reading data file ...
  orthogonal box = (0 0 -0.12909944) to (77.459667 77.459667 0.12909944)
  reading atoms ...
  7200 atoms
change_box all triclinic
Changing box ...
  triclinic box = (0 0 -0.12909944) to (77.459667 77.459667 0.12909944) with tilt (0 0 0)
mass 1 1
mass 2 1
pair_modify shift yes
pair_coeff  1 1 1 1
pair_coeff  1 2 1.5 0.8
pair_coeff  2 2 0.5 0.88

timestep 0.01
thermo 100000
reset_timestep 0
thermo_style custom step temp pe etotal press vol lx ly lz
fix             1 all nvt temp 0.44  0.44  0.1
thermo_modify flush yes

fix dsf all deform 1 xy  wiggle 1.0  100000   units box
fix ps1 all ave/time 1 1 100000 c_thermo_press[1] c_thermo_press[2]  c_thermo_press[3] c_thermo_press[4]  c_thermo_press[5] c_thermo_press[6]  file  stress.440
dump            1 all custom 10000000 dump.440 id type x y z
dump_modify 1 sort id
fix nodrift all momentum 1  linear 1 1 1
fix com_seed all recenter INIT INIT INIT shift all
fix 5 all enforce2d
run 50000000
Using INTEL Package without Coprocessor.
Compiler: Intel Classic C++ 20.21.6 / Intel(R) C++ g++ 4.8.5 mode
SIMD compiler directives: Enabled
Precision: mixed
Generated 0 of 1 mixed pair_coeff terms from geometric mixing rule
  update every 1 steps, delay 10 steps, check yes
Step          Temp          PotEng         TotEng         Press          Volume           Lx             Ly             Lz
0   0             -3.4041563     -3.4041563      6.3459435      6000           77.459667      77.459667      0.25819889
Averages over the last 251 of 501 rows, steps 25000000 to 50000000:
Temp PotEng TotEng Press Volume Lx Ly Lz
0.440062 -3.38941 -2.94941 7.04677 6000 77.4597 77.4597 0.258199
Loop time of 4321.26 on 24 procs for 50000000 steps with 7200 atoms
