units           metal
boundary        p p p
atom_style      atomic
read_data      ../../restart/T650.dat
Reading data file ...
  orthogonal box = (-2.5179103 -2.5179103 -2.5179103) to (80.352688 80.352688 80.352688)
  reading atoms ...
  32000 atoms
  reading velocities ...
  32000 velocities
pair_style      eam/alloy
pair_coeff      * *  ../../ZrCu.lammps.eam Zr Cu
mass 1 91.224
mass 2 63.546
neighbor            2.0 bin
neigh_modify     delay 1
timestep 0.01
thermo 30000
reset_timestep 0
thermo_style custom step temp pe etotal press vol lx ly lz
fix             1 all nvt temp 650 650 0.1
thermo_modify flush yes
fix nodrift all momentum 1  linear 1 1 1
fix com_seed all recenter INIT INIT INIT shift all
fix dsf all deform 1 x  wiggle 1.0  30000.0 y volume z volume units box
fix ps1 all ave/time 1 1 30000 c_thermo_press[1] c_thermo_press[2]  c_thermo_press[3] c_thermo_press[4]  c_thermo_press[5] c_thermo_press[6]  file  stress.650
dump            1 all custom 3000000 dump.650 id type x y z
dump_modify 1 sort id
run 30000000
  update every 1 steps, delay 1 steps, check yes
Step Temp PotEng TotEng Press Volume Lx Ly Lz
0    651.06343   -156980.85   -154287.92   -1430.3315    569116.82    82.870598    82.870598    82.870598
Averages over the last 501 of 1001 rows, steps 15000000 to 30000000:
Temp PotEng TotEng Press Volume Lx Ly Lz
649.848 -156897 -154209 -1066.66 569117 82.8706 82.8729 82.8729
Loop time of 45797.1 on 24 procs for 30000000 steps with 32000 atoms

clear
package intel 1
jump dms660.lmp
#MD-DMS by Ha-Bin Yu
#package gpu 4
variable T equal 660
log log.660
