units           metal
boundary        p p p
atom_style      atomic
read_data      ../../restart/T600.dat
Reading data file ...
  orthogonal box = (-2.4754144 -2.4754144 -2.4754144) to (80.310192 80.310192 80.310192)
  reading atoms ...
  32000 atoms
  reading velocities ...
  32000 velocities
pair_style      eam/alloy
pair_coeff      * *  ../../ZrCu.lammps.eam Zr Cu
mass 1 91.224
mass 2 63.546
neighbor            2.0 bin
neigh_modify     delay 1
timestep 0.01
thermo 30000
reset_timestep 0
thermo_style custom step temp pe etotal press vol lx ly lz
fix             1 all nvt temp 600 600 0.1
thermo_modify flush yes
fix nodrift all momentum 1  linear 1 1 1
fix com_seed all recenter INIT INIT INIT shift all
fix dsf all deform 1 x  wiggle 1.0  30000.0 y volume z volume units box
fix ps1 all ave/time 1 1 30000 c_thermo_press[1] c_thermo_press[2]  c_thermo_press[3] c_thermo_press[4]  c_thermo_press[5] c_thermo_press[6]  file  stress.600
dump            1 all custom 3000000 dump.600 id type x y z
dump_modify 1 sort id
run 30000000
Step Temp PotEng TotEng Press Volume Lx Ly Lz
0    601.52378   -157257.55   -154769.53   -458.86636    567367.56    82.785606    82.785606    82.785606
Averages over the last 501 of 1001 rows, steps 15000000 to 30000000:
Temp PotEng TotEng Press Volume Lx Ly Lz
600.019 -157201 -154719 -157.356 567368 82.7856 82.7879 82.7879
Loop time of 64034.3 on 4 procs for 30000000 steps with 32000 atoms

clear
package gpu 1
jump dms610.lmp
#MD-DMS by Ha-Bin Yu
#package gpu 4
variable T equal 610
log log.610
